
** Library name: freepdk45_cells
** Cell name: OR2X2
** View name: schematic
.subckt OR2X2 a b y gnd vdd
