*SPEF "IEEE 1481-1998"
*DESIGN "fullsystem"
*DATE "Wed Dec  9 08:17:41 2015"
*VENDOR "Silicon Perspective, A Cadence Company"
*PROGRAM "First Encounter"
*VERSION "07.10-s219_1"
*DESIGN_FLOW "COUPLING C" "PIN_CAP NONE" "NAME_SCOPE LOCAL"
*DIVIDER /
*DELIMITER :
*BUS_DELIMITER []
*T_UNIT 1 NS
*C_UNIT 1 PF
*R_UNIT 1 OHM
*L_UNIT 1 HENRY

*NAME_MAP

*1 FE_OCP_RBN1_reset2
*2 FE_OCP_RBN3_reset1
*3 ack_out
*4 clk1
*5 clk1__L1_N0
*6 clk1__L2_N0
*7 clk2
*8 clk2__L1_N0
*9 clk2__L2_N0
*10 listener_str_1xreq_sync
*11 listener_str_1xsync_unitxmeta_reg
*12 n10
*13 n11
*14 n14
*15 n15
*16 n16
*17 n17
*18 n18
*19 n19
*20 n20
*21 n21
*22 n22
*23 n23
*24 n24
*25 n25
*26 n26
*27 n27
*28 n28
*29 n29
*30 n6
*31 n7
*32 n8
*33 rcv
*34 ready
*35 req_in
*36 reset1
*37 reset2
*38 start
*39 talker_str_1xfsm_unitxn6
*40 talker_str_1xfsm_unitxn7
*41 talker_str_1xfsm_unitxn8
*42 talker_str_1xfsm_unitxn9
*43 talker_str_1xfsm_unitxstate_nextx1x
*44 talker_str_1xfsm_unitxstate_regx0x
*45 talker_str_1xfsm_unitxstate_regx1x
*46 talker_str_1xsync_unitxmeta_reg
*47 clk1__L2_I0
*48 clk1__L1_I0
*49 clk2__L2_I0
*50 clk2__L1_I0
*51 FE_OCP_RBC3_reset1
*52 FE_OCP_RBC1_reset2
*53 talker_str_1xfsm_unitxU13
*54 talker_str_1xfsm_unitxU12
*55 talker_str_1xfsm_unitxU11
*56 talker_str_1xfsm_unitxreq_buf_reg_reg
*57 talker_str_1xfsm_unitxstate_reg_regx1x
*58 talker_str_1xfsm_unitxstate_reg_regx0x
*59 U1
*60 U7
*61 U8
*62 U9
*63 U10
*64 U11
*65 U12
*66 U13
*67 U14
*68 listener_str_1xsync_unitxsync_reg_reg
*69 listener_str_1xsync_unitxmeta_reg_reg
*70 listener_str_1xfsm_unitxack_buf_reg_reg
*71 talker_str_1xsync_unitxsync_reg_reg
*72 talker_str_1xsync_unitxmeta_reg_reg
*73 U2
*74 U3
*75 U4
*76 U5
*77 U6
*78 U15
*79 U16
*80 U17
*81 U18
*82 U19
*83 U20
*84 U21
*85 U22
*86 U23
*87 U24


*PORTS

*4 I *C 0 32.775
*7 I *C 26.695 0
*36 I *C 25.365 54.96
*37 I *C 55.34 32.015
*38 I *C 55.34 33.345
*34 O *C 55.34 31.255
*33 O *C 55.34 28.405


*D_NET *18 0.0001073

*CONN
*I *77:A I *C 21 22 *L 0.00155 *D INVX1
*I *76:Y O *C 20 22 *L 0 *D INVX1

*CAP
1 *77:A 2.324e-05
2 *18:3 2.923e-05
3 *18:2 3.041e-05
4 *76:Y 2.442e-05

*RES
1 *76:Y *18:2 1.66615
2 *18:2 *18:3 0.540769
3 *18:3 *77:A 1.63692
*END

*D_NET *24 0.00023756

*CONN
*I *83:A I *C 22 26 *L 0.00155 *D INVX1
*I *82:Y O *C 20 27 *L 0 *D INVX1

*CAP
1 *82:Y 8.955e-05
2 *24:3 9.554e-05
3 *24:2 2.923e-05
4 *83:A 2.324e-05

*RES
1 *24:2 *83:A 1.63692
2 *24:3 *24:2 0.540769
3 *82:Y *24:3 6.10923
*END

*D_NET *26 0.00029029

*CONN
*I *84:Y O *C 20 27 *L 0 *D BUFX2
*I *82:A I *C 20 26 *L 0.00155 *D INVX1

*CAP
1 *82:A 2.989e-05
2 *26:6 3.604e-05
3 *26:5 2.644e-05
4 *26:4 4.11e-05
5 *26:3 5.76e-05
6 *26:2 5.76e-05
7 *84:Y 4.162e-05

*RES
1 *84:Y *26:2 4
2 *26:3 *26:2 2.71429
3 *26:3 *26:4 4
4 *26:4 *26:5 1.11077
5 *26:6 *26:5 0.555385
6 *26:6 *82:A 1.63692
*END

*D_NET *19 0.00025792

*CONN
*I *77:Y O *C 21 22 *L 0 *D INVX1
*I *72:D I *C 21 23 *L 0.002 *D DFFSR

*CAP
1 *72:D 4.162e-05
2 *19:4 7.532e-05
3 *19:3 6.862e-05
4 *19:2 3.074e-05
5 *77:Y 4.162e-05

*RES
1 *77:Y *19:2 4
2 *19:3 *19:2 0.678571
3 *19:3 *19:4 3.5625
4 *19:4 *72:D 4
*END

*D_NET *25 0.002045

*CONN
*I *83:Y O *C 22 27 *L 0 *D INVX1
*I *70:D I *C 20 31 *L 0.002 *D DFFSR

*CAP
1 *83:Y 4.162e-05
2 *25:7 0.00018394
3 *25:6 0.00018394
4 *25:5 0.00069788
5 *25:4 0.00069788
6 *25:3 9.906e-05
7 *25:2 9.906e-05
8 *70:D 4.162e-05

*RES
1 *70:D *25:2 4
2 *25:3 *25:2 6.10714
3 *25:3 *25:4 4
4 *25:4 *25:5 10.0262
5 *25:5 *25:6 4
6 *25:7 *25:6 8.65179
7 *25:7 *83:Y 4
*END

*D_NET *17 0.00039543

*CONN
*I *75:Y O *C 23 21 *L 0 *D BUFX2
*I *73:A I *C 22 22 *L 0.00155 *D INVX1

*CAP
1 *73:A 4.162e-05
2 *17:6 3.675e-05
3 *17:5 2.368e-05
4 *17:4 1.767e-05
5 *17:3 3.074e-05
6 *17:2 0.00013289
7 *75:Y 0.00011208

*RES
1 *17:2 *75:Y 3.33231
2 *17:2 *17:3 4
3 *17:4 *17:3 0.678571
4 *17:4 *17:5 0.330357
5 *17:6 *17:5 1.01786
6 *17:6 *73:A 4
*END

*D_NET *3 0.00111466

*CONN
*I *78:A I *C 23 26 *L 0.00154 *D BUFX2
*I *70:Q O *C 24 32 *L 0 *D DFFSR

*CAP
1 *70:Q 4.162e-05
2 *3:8 3.675e-05
3 *3:7 0.00012138
4 *3:6 0.00012207
5 *3:5 0.00019091
6 *3:4 0.00019091
7 *3:3 0.0001847
8 *3:2 0.0001847
9 *78:A 4.162e-05

*RES
1 *78:A *3:2 4
2 *3:2 *3:3 11.1964
3 *3:3 *3:4 4
4 *3:4 *3:5 2.48462
5 *3:5 *3:6 4
6 *3:6 *3:7 3.39286
7 *3:7 *3:8 1.01786
8 *3:8 *70:Q 4
*END

*D_NET *21 0.00082976

*CONN
*I *80:A I *C 24 31 *L 0.00155 *D INVX1
*I *79:Y O *C 26 27 *L 0 *D INVX1

*CAP
1 *79:Y 0.00016771
2 *21:4 0.00019931
3 *21:3 0.00021056
4 *21:2 0.00021056
5 *80:A 4.162e-05

*RES
1 *80:A *21:2 4
2 *21:3 *21:2 11.8661
3 *21:3 *21:4 4
4 *21:4 *79:Y 14.4692
*END

*D_NET *46 0.00027415

*CONN
*I *75:A I *C 24 21 *L 0.00154 *D BUFX2
*I *72:Q O *C 24 22 *L 0 *D DFFSR

*CAP
1 *72:Q 4.162e-05
2 *46:6 6.713e-05
3 *46:5 6.713e-05
4 *46:4 3.537e-05
5 *46:3 2.071e-05
6 *46:2 2.417e-05
7 *75:A 1.802e-05

*RES
1 *75:A *46:2 1.37385
2 *46:2 *46:3 0.555385
3 *46:3 *46:4 1.11077
4 *46:4 *46:5 4
5 *46:5 *46:6 3.90179
6 *46:6 *72:Q 4
*END

*D_NET *27 0.00030084

*CONN
*I *86:A I *C 24 23 *L 0.00155 *D INVX1
*I *85:Y O *C 25 22 *L 0 *D INVX1

*CAP
1 *86:A 4.162e-05
2 *27:5 4.876e-05
3 *27:4 5.868e-05
4 *27:3 4.736e-05
5 *27:2 6.801e-05
6 *85:Y 3.641e-05

*RES
1 *27:2 *85:Y 2.77692
2 *27:2 *27:3 4
3 *27:4 *27:3 1.01786
4 *27:5 *27:4 1.69643
5 *27:5 *86:A 4
*END

*D_NET *36 0.00287556

*CONN
*P *36 I *C 25 54 *L 0
*I *51:A I *C 25 31 *L 0.00267 *D INVX2

*CAP
1 *36 0.00120218
2 *36:4 0.00120819
3 *36:3 0.00020543
4 *36:2 0.00021814
5 *51:A 4.162e-05

*RES
1 *51:A *36:2 4
2 *36:2 *36:3 10.1786
3 *36:3 *36:4 0.339286
4 *36:4 *36 73
*END

*D_NET *10 0.00193964

*CONN
*I *84:A I *C 20 28 *L 0.00154 *D BUFX2
*I *68:Q O *C 25 32 *L 0 *D DFFSR

*CAP
1 *68:Q 4.162e-05
2 *10:9 0.00013623
3 *10:8 0.00012953
4 *10:7 0.0001058
5 *10:6 0.0001125
6 *10:5 0.00060008
7 *10:4 0.00060008
8 *10:3 9.06e-05
9 *10:2 8.158e-05
10 *84:A 4.162e-05

*RES
1 *84:A *10:2 4
2 *10:2 *10:3 3.67857
3 *10:3 *10:4 4
4 *10:4 *10:5 28.0323
5 *10:5 *10:6 4
6 *10:6 *10:7 4.07143
7 *10:7 *10:8 0.678571
8 *10:8 *10:9 7.29464
9 *10:9 *68:Q 4
*END

*D_NET *23 0.00063935

*CONN
*I *81:Y O *C 25 30 *L 0 *D BUFX2
*I *79:A I *C 26 28 *L 0.00155 *D INVX1

*CAP
1 *81:Y 4.162e-05
2 *23:6 0.00017809
3 *23:5 0.00017809
4 *23:4 9.514e-05
5 *23:3 8.048e-05
6 *23:2 3.604e-05
7 *79:A 2.989e-05

*RES
1 *23:2 *79:A 1.63692
2 *23:2 *23:3 0.555385
3 *23:4 *23:3 3.33231
4 *23:4 *23:5 4
5 *23:5 *23:6 7.46429
6 *23:6 *81:Y 4
*END

*D_NET *8 0.0002195

*CONN
*I *50:Y O *C 27 21 *L 0 *D INVX8
*I *49:A I *C 26 23 *L 0.00509 *D INVX4

*CAP
1 *49:A 4.162e-05
2 *8:3 6.813e-05
3 *8:2 6.813e-05
4 *50:Y 4.162e-05

*RES
1 *50:Y *8:2 4
2 *8:2 *8:3 4.24107
3 *8:3 *49:A 4
*END

*D_NET *30 0.0008052

*CONN
*I *61:A I *C 27 26 *L 0.00155 *D INVX1
*I *59:Y O *C 28 30 *L 0 *D OR2X2

*CAP
1 *59:Y 4.162e-05
2 *30:7 0.00012149
3 *30:6 0.00012149
4 *30:5 0.00017425
5 *30:4 0.00017425
6 *30:3 6.524e-05
7 *30:2 6.524e-05
8 *61:A 4.162e-05

*RES
1 *61:A *30:2 4
2 *30:2 *30:3 3.05357
3 *30:3 *30:4 4
4 *30:4 *30:5 3.85846
5 *30:5 *30:6 4
6 *30:6 *30:7 8.82143
7 *30:7 *59:Y 4
*END

*D_NET *40 0.00043196

*CONN
*I *66:Y O *C 33 32 *L 0 *D INVX1
*I *55:B I *C 33 33 *L 0.00276 *D AOI22X1

*CAP
1 *66:Y 6.549e-05
2 *40:6 9.709e-05
3 *40:5 4.106e-05
4 *40:4 2.835e-05
5 *40:3 7.282e-05
6 *40:2 8.553e-05
7 *55:B 4.162e-05

*RES
1 *55:B *40:2 4
2 *40:3 *40:2 2.71429
3 *40:4 *40:3 0.339286
4 *40:5 *40:4 1.35714
5 *40:5 *40:6 4
6 *66:Y *40:6 1.66615
*END

*D_NET *14 0.0007637

*CONN
*I *71:Q O *C 35 22 *L 0 *D DFFSR
*I *63:A I *C 35 26 *L 0.00154 *D BUFX2

*CAP
1 *71:Q 4.162e-05
2 *14:5 0.00012064
3 *14:4 0.00010477
4 *14:3 0.00021508
5 *14:2 0.00023997
6 *63:A 4.162e-05

*RES
1 *63:A *14:2 4
2 *14:3 *14:2 10.4196
3 *14:3 *14:4 0.160714
4 *14:5 *14:4 4.58036
5 *14:5 *71:Q 4
*END

*D_NET *15 0.00105344

*CONN
*I *74:A I *C 28 22 *L 0.00155 *D INVX1
*I *73:Y O *C 22 22 *L 0 *D INVX1

*CAP
1 *73:Y 9.789e-05
2 *15:10 0.00012949
3 *15:9 3.884e-05
4 *15:8 0.00026059
5 *15:7 0.00026059
6 *15:6 3.884e-05
7 *15:5 5.683e-05
8 *15:4 5.683e-05
9 *15:3 3.596e-05
10 *15:2 3.596e-05
11 *74:A 4.162e-05

*RES
1 *74:A *15:2 4
2 *15:3 *15:2 1.00893
3 *15:3 *15:4 4
4 *15:5 *15:4 2.74769
5 *15:5 *15:6 4
6 *15:6 *15:7 4
7 *15:8 *15:7 16.9643
8 *15:8 *15:9 4
9 *15:9 *15:10 4
10 *73:Y *15:10 3.88769
*END

*D_NET *16 0.00067834

*CONN
*I *74:Y O *C 28 22 *L 0 *D INVX1
*I *71:D I *C 31 21 *L 0.002 *D DFFSR

*CAP
1 *74:Y 0.00016747
2 *16:7 0.00019907
3 *16:6 3.884e-05
4 *16:5 7.406e-05
5 *16:4 7.406e-05
6 *16:3 3.745e-05
7 *16:2 4.577e-05
8 *71:D 4.162e-05

*RES
1 *71:D *16:2 4
2 *16:3 *16:2 1.01786
3 *16:3 *16:4 4
4 *16:5 *16:4 1.35714
5 *16:5 *16:6 4
6 *16:6 *16:7 4
7 *74:Y *16:7 12.7738
*END

*D_NET *35 0.00081519

*CONN
*I *87:A I *C 27 23 *L 0.00154 *D BUFX2
*I *56:Q O *C 31 22 *L 0 *D DFFSR

*CAP
1 *56:Q 4.162e-05
2 *35:7 4.577e-05
3 *35:6 4.716e-05
4 *35:5 0.00028018
5 *35:4 0.00028018
6 *35:3 3.968e-05
7 *35:2 3.898e-05
8 *87:A 4.162e-05

*RES
1 *87:A *35:2 4
2 *35:3 *35:2 1.01786
3 *35:3 *35:4 4
4 *35:4 *35:5 13.7411
5 *35:5 *35:6 4
6 *35:6 *35:7 1.01786
7 *35:7 *56:Q 4
*END

*D_NET *29 0.00049195

*CONN
*I *87:Y O *C 27 23 *L 0 *D BUFX2
*I *85:A I *C 25 23 *L 0.00155 *D INVX1

*CAP
1 *87:Y 4.162e-05
2 *29:7 3.884e-05
3 *29:6 0.00012275
4 *29:5 0.00011252
5 *29:4 3.745e-05
6 *29:3 4.823e-05
7 *29:2 4.892e-05
8 *85:A 4.162e-05

*RES
1 *85:A *29:2 4
2 *29:2 *29:3 1.01786
3 *29:3 *29:4 1.01786
4 *29:4 *29:5 4
5 *29:5 *29:6 4.07143
6 *29:6 *29:7 4
7 *29:7 *87:Y 4
*END

*D_NET *20 0.00093845

*CONN
*I *78:Y O *C 22 25 *L 0 *D BUFX2
*I *76:A I *C 20 22 *L 0.00155 *D INVX1

*CAP
1 *78:Y 4.416e-05
2 *20:11 7.576e-05
3 *20:10 6.51e-05
4 *20:9 6.58e-05
5 *20:8 8.967e-05
6 *20:7 8.967e-05
7 *20:6 3.884e-05
8 *20:5 8.358e-05
9 *20:4 7.279e-05
10 *20:3 0.00013573
11 *20:2 0.00013573
12 *76:A 4.162e-05

*RES
1 *76:A *20:2 4
2 *20:2 *20:3 9.16071
3 *20:3 *20:4 4
4 *20:4 *20:5 2.77692
5 *20:5 *20:6 4
6 *20:6 *20:7 4
7 *20:7 *20:8 6.78571
8 *20:8 *20:9 4
9 *20:9 *20:10 2.71429
10 *20:10 *20:11 4
11 *20:11 *78:Y 1.11077
*END

*D_NET *1 0.003491

*CONN
*I *72:R I *C 24 24 *L 0.00497 *D DFFSR
*I *71:R I *C 34 20 *L 0.00497 *D DFFSR
*I *58:R I *C 32 25 *L 0.00497 *D DFFSR
*I *57:R I *C 27 25 *L 0.00497 *D DFFSR
*I *56:R I *C 31 24 *L 0.00497 *D DFFSR
*I *52:Y O *C 34 30 *L 0 *D INVX4

*CAP
1 *58:R 4.162e-05
2 *1:15 7.882e-05
3 *1:11 7.952e-05
4 *1:7 0.00020706
5 *1:4 0.00030169
6 *1:8 3.884e-05
7 *56:R 4.162e-05
8 *71:R 4.162e-05
9 *1:17 0.00020088
10 *1:14 0.00037482
11 *1:10 0.00017042
12 *52:Y 4.162e-05
13 *1:23 0.00012861
14 *1:22 0.00012191
15 *1:21 0.00026957
16 *1:19 0.00026957
17 *1:16 0.00018526
18 *57:R 4.162e-05
19 *1:9 6.14e-05
20 *1:5 6.21e-05
21 *1:2 0.00044316
22 *72:R 4.162e-05
23 *1:3 3.884e-05
24 *1:1 0.00020881

*RES
1 *1:1 *1:2 10.8571
2 *1:1 *1:3 4
3 *1:2 *1:4 14.9286
4 *1:2 *1:5 4
5 *1:3 *72:R 4
6 *1:4 *1:7 2.71429
7 *1:4 *1:8 4
8 *1:5 *1:9 3.39286
9 *1:7 *1:10 9.5
10 *1:7 *1:11 4
11 *1:8 *56:R 4
12 *1:9 *57:R 4
13 *1:10 *1:14 4
14 *1:11 *1:15 3.39286
15 *1:14 *1:16 8.82143
16 *1:17 *1:14 14.25
17 *1:15 *58:R 4
18 *1:19 *1:16 0.678571
19 *1:17 *71:R 4
20 *1:19 *1:21 5.42857
21 *1:21 *1:22 0.678571
22 *1:22 *1:23 6.10714
23 *1:23 *52:Y 4
*END

*D_NET *28 0.00138801

*CONN
*I *86:Y O *C 25 22 *L 0 *D INVX1
*I *69:D I *C 27 33 *L 0.002 *D DFFSR

*CAP
1 *86:Y 2.184e-05
2 *28:10 5.344e-05
3 *28:9 9.514e-05
4 *28:8 9.584e-05
5 *28:7 0.00013816
6 *28:6 0.00013816
7 *28:5 0.0002658
8 *28:4 0.00024268
9 *28:3 0.00014131
10 *28:2 0.00015402
11 *69:D 4.162e-05

*RES
1 *69:D *28:2 4
2 *28:3 *28:2 11.1964
3 *28:4 *28:3 0.339286
4 *28:5 *28:4 15.6071
5 *28:5 *28:6 4
6 *28:7 *28:6 6.10714
7 *28:7 *28:8 4
8 *28:9 *28:8 5.42857
9 *28:9 *28:10 4
10 *86:Y *28:10 1.66615
*END

*D_NET *31 0.00079566

*CONN
*I *61:Y O *C 28 27 *L 0 *D INVX1
*I *58:D I *C 29 26 *L 0.002 *D DFFSR
*I *56:D I *C 28 23 *L 0.002 *D DFFSR

*CAP
1 *56:D 4.162e-05
2 *31:13 7.173e-05
3 *31:12 5.902e-05
4 *31:11 5.198e-05
5 *31:10 6.469e-05
6 *31:9 5.656e-05
7 *61:Y 4.992e-05
8 *31:7 5.656e-05
9 *31:6 3.884e-05
10 *31:5 8.995e-05
11 *31:4 8.995e-05
12 *31:3 3.745e-05
13 *31:2 4.577e-05
14 *58:D 4.162e-05

*RES
1 *58:D *31:2 4
2 *31:3 *31:2 1.01786
3 *31:3 *31:4 4
4 *31:5 *31:4 1.35714
5 *31:5 *31:6 4
6 *31:6 *31:7 4
7 *61:Y *31:7 1.66615
8 *61:Y *31:9 1.66615
9 *31:9 *31:10 4
10 *31:11 *31:10 3.39286
11 *31:12 *31:11 0.339286
12 *31:13 *31:12 4.75
13 *31:13 *56:D 4
*END

*D_NET *44 0.00070524

*CONN
*I *65:A I *C 33 26 *L 0.00154 *D BUFX2
*I *58:Q O *C 32 27 *L 0 *D DFFSR

*CAP
1 *58:Q 4.162e-05
2 *44:7 4.363e-05
3 *44:6 4.433e-05
4 *44:5 0.00020612
5 *44:4 0.00020612
6 *44:3 6.125e-05
7 *44:2 6.055e-05
8 *65:A 4.162e-05

*RES
1 *65:A *44:2 4
2 *44:2 *44:3 1.01786
3 *44:3 *44:4 4
4 *44:5 *44:4 2.54464
5 *44:5 *44:6 4
6 *44:6 *44:7 1.01786
7 *44:7 *58:Q 4
*END

*D_NET *43 0.00169256

*CONN
*I *60:Y O *C 34 25 *L 0 *D AND2X2
*I *57:D I *C 24 26 *L 0.002 *D DFFSR

*CAP
1 *60:Y 4.162e-05
2 *43:8 4.577e-05
3 *43:7 4.716e-05
4 *43:6 0.00070532
5 *43:5 0.00069509
6 *43:4 3.745e-05
7 *43:3 3.892e-05
8 *43:2 3.961e-05
9 *57:D 4.162e-05

*RES
1 *57:D *43:2 4
2 *43:2 *43:3 1.01786
3 *43:3 *43:4 1.01786
4 *43:4 *43:5 4
5 *43:5 *43:6 33.9286
6 *43:6 *43:7 4
7 *43:7 *43:8 1.01786
8 *43:8 *60:Y 4
*END

*D_NET *45 0.00063598

*CONN
*I *64:A I *C 29 28 *L 0.00154 *D BUFX2
*I *57:Q O *C 27 27 *L 0 *D DFFSR

*CAP
1 *57:Q 4.162e-05
2 *45:7 5.901e-05
3 *45:6 5.971e-05
4 *45:5 0.00014534
5 *45:4 0.00014534
6 *45:3 7.202e-05
7 *45:2 7.132e-05
8 *64:A 4.162e-05

*RES
1 *64:A *45:2 4
2 *45:3 *45:2 3.05357
3 *45:3 *45:4 4
4 *45:5 *45:4 7.97321
5 *45:5 *45:6 4
6 *45:7 *45:6 1.1875
7 *45:7 *57:Q 4
*END

*D_NET *33 0.00436292

*CONN
*P *33 O *C 55 28 *L 0
*I *66:A I *C 33 31 *L 0.00155 *D INVX1
*I *63:Y O *C 34 26 *L 0 *D BUFX2
*I *60:A I *C 33 26 *L 0.0018 *D AND2X2

*CAP
1 *60:A 4.162e-05
2 *33:3 0.00038678
3 *33:5 3.998e-05
4 *33:7 5.562e-05
5 *33:8 5.562e-05
6 *33:9 3.884e-05
7 *33:10 4.616e-05
8 *63:Y 5.618e-05
9 *33:12 0.00025298
10 *33:13 0.00025298
11 *33:14 6.449e-05
12 *33:15 6.449e-05
13 *33:16 3.884e-05
14 *33:17 0.0012679
15 *33 0.0012372
16 *66:A 4.162e-05
17 *33:2 4.608e-05
18 *33:1 0.00037554

*RES
1 *33:2 *33:1 1.03571
2 *33:3 *33:1 18.6518
3 *33:2 *66:A 4
4 *33:3 *33:5 1.16071
5 *33:3 *60:A 4
6 *33:5 *33:7 4
7 *33:7 *33:8 2.03571
8 *33:8 *33:9 4
9 *33:9 *33:10 4
10 *33:10 *63:Y 1.11077
11 *63:Y *33:12 4
12 *33:12 *33:13 4.07143
13 *33:13 *33:14 4
14 *33:14 *33:15 3.33231
15 *33:15 *33:16 4
16 *33:16 *33:17 4
17 *33:17 *33 71.6429
*END

*D_NET *34 0.00361618

*CONN
*P *34 O *C 55 31 *L 0
*I *54:Y O *C 32 31 *L 0 *D NOR2X1

*CAP
1 *54:Y 7.608e-05
2 *34:6 0.00010768
3 *34:5 3.884e-05
4 *34:4 0.00108366
5 *34:3 0.00106513
6 *34:2 0.00062848
7 *34 0.00061631

*RES
1 *34:2 *34 29.5714
2 *34:2 *34:3 0.678571
3 *34:4 *34:3 49.5357
4 *34:4 *34:5 4
5 *34:5 *34:6 4
6 *54:Y *34:6 6.09462
*END

*D_NET *12 0.00136305

*CONN
*I *64:Y O *C 29 29 *L 0 *D BUFX2
*I *59:A I *C 27 31 *L 0.0023 *D OR2X2
*I *53:A I *C 30 31 *L 0.0054 *D XOR2X1

*CAP
1 *64:Y 4.162e-05
2 *12:8 8.82e-05
3 *12:5 8.89e-05
4 *12:2 0.00046302
5 *12:4 0.00035051
6 *12:7 3.884e-05
7 *59:A 4.162e-05
8 *53:A 1.221e-05
9 *12:9 4.381e-05
10 *12:6 3.032e-05
11 *12:3 3.102e-05
12 *12:1 0.00013298

*RES
1 *12:2 *12:1 1.35714
2 *12:1 *12:3 4
3 *12:4 *12:2 5.42857
4 *12:2 *12:5 4
5 *12:3 *12:6 0.678571
6 *12:4 *12:7 4
7 *12:8 *12:5 6.78571
8 *12:6 *12:9 4
9 *12:7 *59:A 4
10 *12:8 *64:Y 4
11 *12:9 *53:A 0.833077
*END

*D_NET *41 0.00175548

*CONN
*I *60:B I *C 33 26 *L 0.00187 *D AND2X2
*I *54:B I *C 32 31 *L 0.00237 *D NOR2X1
*I *53:Y O *C 30 31 *L 0 *D XOR2X1

*CAP
1 *60:B 4.162e-05
2 *41:13 3.884e-05
3 *41:10 0.00013339
4 *41:7 0.00013339
5 *41:4 0.00037428
6 *41:2 0.00036318
7 *41:5 2.846e-05
8 *41:8 4.117e-05
9 *54:B 4.162e-05
10 *53:Y 4.162e-05
11 *41:12 4.577e-05
12 *41:9 4.716e-05
13 *41:6 0.00019677
14 *41:3 0.00019677
15 *41:1 3.144e-05

*RES
1 *41:1 *41:2 0.678571
2 *41:1 *41:3 4
3 *41:4 *41:2 18.3214
4 *41:2 *41:5 0.339286
5 *41:6 *41:3 5.42857
6 *41:4 *41:7 4
7 *41:5 *41:8 1.00893
8 *41:6 *41:9 4
9 *41:7 *41:10 6.78571
10 *41:8 *54:B 4
11 *41:12 *41:9 1.01786
12 *41:10 *41:13 4
13 *41:12 *53:Y 4
14 *41:13 *60:B 4
*END

*D_NET *11 0.00153118

*CONN
*I *81:A I *C 26 31 *L 0.00154 *D BUFX2
*I *69:Q O *C 30 32 *L 0 *D DFFSR

*CAP
1 *69:Q 4.162e-05
2 *11:7 7.036e-05
3 *11:6 7.106e-05
4 *11:5 0.00061043
5 *11:4 0.00061043
6 *11:3 4.318e-05
7 *11:2 4.248e-05
8 *81:A 4.162e-05

*RES
1 *81:A *11:2 4
2 *11:2 *11:3 1.01786
3 *11:3 *11:4 4
4 *11:4 *11:5 15.0982
5 *11:5 *11:6 4
6 *11:6 *11:7 3.22321
7 *11:7 *69:Q 4
*END

*D_NET *37 0.00347516

*CONN
*P *37 I *C 55 32 *L 0
*I *52:A I *C 34 31 *L 0.00509 *D INVX4

*CAP
1 *37 0.00164333
2 *37:5 0.00167403
3 *37:4 4.736e-05
4 *37:3 4.666e-05
5 *37:2 4.769e-05
6 *52:A 1.609e-05

*RES
1 *52:A *37:2 1.22769
2 *37:2 *37:3 4
3 *37:3 *37:4 1.69643
4 *37:4 *37:5 4
5 *37:5 *37 72.3214
*END

*D_NET *32 0.00070026

*CONN
*I *62:Y O *C 30 32 *L 0 *D BUFX2
*I *59:B I *C 28 31 *L 0.00234 *D OR2X2

*CAP
1 *62:Y 4.162e-05
2 *32:7 5.314e-05
3 *32:6 5.384e-05
4 *32:5 0.0001925
5 *32:4 0.0001925
6 *32:3 6.287e-05
7 *32:2 6.217e-05
8 *59:B 4.162e-05

*RES
1 *59:B *32:2 4
2 *32:2 *32:3 3.78571
3 *32:3 *32:4 4
4 *32:4 *32:5 9.5
5 *32:5 *32:6 4
6 *32:6 *32:7 0.678571
7 *32:7 *62:Y 4
*END

*D_NET *22 0.00105212

*CONN
*I *80:Y O *C 24 32 *L 0 *D INVX1
*I *68:D I *C 22 33 *L 0.002 *D DFFSR

*CAP
1 *80:Y 6.625e-05
2 *22:9 9.785e-05
3 *22:8 7.822e-05
4 *22:7 7.892e-05
5 *22:6 0.00027739
6 *22:5 0.00027739
7 *22:4 3.745e-05
8 *22:3 4.817e-05
9 *22:2 4.886e-05
10 *68:D 4.162e-05

*RES
1 *68:D *22:2 4
2 *22:3 *22:2 1.69643
3 *22:3 *22:4 1.01786
4 *22:4 *22:5 4
5 *22:5 *22:6 8.82143
6 *22:6 *22:7 4
7 *22:8 *22:7 2.03571
8 *22:8 *22:9 4
9 *80:Y *22:9 1.66615
*END

*D_NET *13 0.00253595

*CONN
*I *67:A I *C 31 33 *L 0.00155 *D INVX1
*I *65:Y O *C 32 27 *L 0 *D BUFX2
*I *55:A I *C 33 33 *L 0.00282 *D AOI22X1
*I *54:A I *C 31 31 *L 0.00224 *D NOR2X1
*I *53:B I *C 29 31 *L 0.00567 *D XOR2X1

*CAP
1 *65:Y 4.162e-05
2 *13:10 0.00036714
3 *13:7 0.00043713
4 *13:4 0.00014454
5 *13:2 0.00023078
6 *13:5 4.367e-05
7 *13:8 4.297e-05
8 *13:11 5.559e-05
9 *54:A 6.561e-05
10 *13:17 9.831e-05
11 *13:19 9.831e-05
12 *67:A 4.162e-05
13 *55:A 2.184e-05
14 *13:20 5.344e-05
15 *13:18 7.602e-05
16 *13:16 7.672e-05
17 *13:15 0.00017241
18 *13:12 0.00017241
19 *13:9 9.842e-05
20 *53:B 4.162e-05
21 *13:3 3.884e-05
22 *13:1 0.00011694

*RES
1 *13:1 *13:2 6.78571
2 *13:1 *13:3 4
3 *13:2 *13:4 4.75
4 *13:2 *13:5 4
5 *13:3 *53:B 4
6 *13:4 *13:7 4
7 *13:5 *13:8 1.6875
8 *13:7 *13:9 4.75
9 *13:10 *13:7 14.9286
10 *13:8 *13:11 4
11 *13:9 *13:12 4
12 *13:10 *65:Y 4
13 *13:11 *54:A 1.63692
14 *13:12 *13:15 5.42857
15 *13:15 *13:16 4
16 *54:A *13:17 4
17 *13:16 *13:18 2.03571
18 *13:17 *13:19 4.07143
19 *13:18 *13:20 4
20 *13:19 *67:A 4
21 *55:A *13:20 1.66615
*END

*D_NET *42 0.00071182

*CONN
*I *62:A I *C 31 33 *L 0.00154 *D BUFX2
*I *55:Y O *C 33 32 *L 0 *D AOI22X1

*CAP
1 *55:Y 4.162e-05
2 *42:7 2.473e-05
3 *42:6 2.543e-05
4 *42:5 0.00023944
5 *42:4 0.00023944
6 *42:3 5.012e-05
7 *42:2 4.942e-05
8 *62:A 4.162e-05

*RES
1 *62:A *42:2 4
2 *42:3 *42:2 1.69643
3 *42:3 *42:4 4
4 *42:4 *42:5 6.95536
5 *42:5 *42:6 4
6 *42:6 *42:7 0.339286
7 *42:7 *55:Y 4
*END

*D_NET *5 0.00154243

*CONN
*I *48:Y O *C 20 33 *L 0 *D INVX8
*I *47:A I *C 26 33 *L 0.00509 *D INVX4

*CAP
1 *48:Y 4.162e-05
2 *5:8 3.423e-05
3 *5:7 3.493e-05
4 *5:6 0.00064657
5 *5:5 0.00064435
6 *5:4 4.895e-05
7 *5:3 2.543e-05
8 *5:2 2.473e-05
9 *47:A 4.162e-05

*RES
1 *47:A *5:2 4
2 *5:3 *5:2 0.339286
3 *5:3 *5:4 4
4 *5:5 *5:4 1.01786
5 *5:6 *5:5 19
6 *5:6 *5:7 4
7 *5:7 *5:8 1.01786
8 *5:8 *48:Y 4
*END

*D_NET *39 0.0006542

*CONN
*I *67:Y O *C 31 32 *L 0 *D INVX1
*I *55:D I *C 33 33 *L 0.00291 *D AOI22X1

*CAP
1 *67:Y 8.955e-05
2 *39:8 0.00012115
3 *39:7 3.884e-05
4 *39:6 0.00012734
5 *39:5 0.00012734
6 *39:4 3.452e-05
7 *39:3 3.06e-05
8 *39:2 4.324e-05
9 *55:D 4.162e-05

*RES
1 *55:D *39:2 4
2 *39:3 *39:2 0.875
3 *39:4 *39:3 0.678571
4 *39:4 *39:5 4
5 *39:6 *39:5 1.35714
6 *39:6 *39:7 4
7 *39:7 *39:8 4
8 *67:Y *39:8 6.10923
*END

*D_NET *38 0.00295692

*CONN
*P *38 I *C 55 33 *L 0
*I *55:C I *C 33 33 *L 0.00288 *D AOI22X1

*CAP
1 *38 0.00142288
2 *38:3 0.00145358
3 *38:2 3.884e-05
4 *55:C 4.162e-05

*RES
1 *55:C *38:2 4
2 *38:2 *38:3 4
3 *38:3 *38 79.1071
*END

*D_NET *2 0.00194747

*CONN
*I *70:R I *C 23 30 *L 0.00497 *D DFFSR
*I *69:R I *C 30 34 *L 0.00497 *D DFFSR
*I *68:R I *C 25 34 *L 0.00497 *D DFFSR
*I *51:Y O *C 25 32 *L 0 *D INVX2

*CAP
1 *51:Y 3.119e-05
2 *2:10 6.279e-05
3 *2:8 3.884e-05
4 *2:6 0.00012876
5 *2:4 0.00012876
6 *2:2 0.0002422
7 *70:R 4.162e-05
8 *69:R 4.162e-05
9 *2:15 4.106e-05
10 *2:14 4.176e-05
11 *2:13 0.00036496
12 *2:11 0.00035473
13 *2:9 4.806e-05
14 *2:7 4.736e-05
15 *68:R 8.324e-05
16 *2:1 0.00025052

*RES
1 *2:2 *2:1 13.9732
2 *2:1 *68:R 4
3 *2:2 *2:4 4
4 *2:2 *70:R 4
5 *2:4 *2:6 7.46429
6 *68:R *2:7 4
7 *2:6 *2:8 4
8 *2:9 *2:7 1.01786
9 *2:8 *2:10 4
10 *2:9 *2:11 4
11 *51:Y *2:10 1.66615
12 *2:11 *2:13 18.3214
13 *2:13 *2:14 4
14 *2:14 *2:15 1.35714
15 *2:15 *69:R 4
*END

*D_NET *4 0.00274118

*CONN
*P *4 I *C 0 32 *L 0
*I *48:A I *C 20 33 *L 0.0101 *D INVX8

*CAP
1 *4 0.00119917
2 *4:8 0.00122987
3 *4:7 5.924e-05
4 *4:6 5.924e-05
5 *4:5 4.181e-05
6 *4:4 4.181e-05
7 *4:3 3.456e-05
8 *4:2 3.386e-05
9 *48:A 4.162e-05

*RES
1 *48:A *4:2 4
2 *4:3 *4:2 1.01786
3 *4:3 *4:4 4
4 *4:5 *4:4 1.28571
5 *4:5 *4:6 4
6 *4:7 *4:6 1.01786
7 *4:7 *4:8 4
8 *4 *4:8 72.2143
*END

*D_NET *6 0.00225859

*CONN
*I *70:CLK I *C 20 31 *L 0.00173 *D DFFSR
*I *69:CLK I *C 26 33 *L 0.00173 *D DFFSR
*I *68:CLK I *C 22 33 *L 0.00173 *D DFFSR
*I *47:Y O *C 26 33 *L 0 *D INVX4

*CAP
1 *68:CLK 4.162e-05
2 *6:12 4.577e-05
3 *6:8 4.716e-05
4 *6:4 0.00055912
5 *6:7 0.00010923
6 *6:11 0.00015246
7 *6:15 0.00015246
8 *6:19 3.837e-05
9 *6:21 3.837e-05
10 *6:22 4.716e-05
11 *6:23 4.577e-05
12 *70:CLK 4.162e-05
13 *47:Y 2.032e-05
14 *6:13 5.192e-05
15 *6:9 2.99e-05
16 *6:5 3.06e-05
17 *6:2 0.00048652
18 *69:CLK 4.162e-05
19 *6:18 4.577e-05
20 *6:14 4.716e-05
21 *6:10 4.093e-05
22 *6:6 4.894e-05
23 *6:3 4.894e-05
24 *6:1 4.686e-05

*RES
1 *6:2 *6:1 0.714286
2 *6:1 *6:3 4
3 *6:4 *6:2 14.9286
4 *6:2 *6:5 4
5 *6:3 *6:6 1
6 *6:7 *6:4 3.35714
7 *6:4 *6:8 4
8 *6:5 *6:9 0.678571
9 *6:6 *6:10 4
10 *6:7 *6:11 4
11 *6:8 *6:12 1.01786
12 *6:9 *6:13 4
13 *6:10 *6:14 4
14 *6:15 *6:11 3.73214
15 *6:12 *68:CLK 4
16 *6:13 *47:Y 1.65154
17 *6:14 *6:18 1.01786
18 *6:15 *6:19 4
19 *6:18 *69:CLK 4
20 *6:21 *6:19 2.07143
21 *6:21 *6:22 4
22 *6:22 *6:23 1.01786
23 *6:23 *70:CLK 4
*END

*D_NET *7 0.00290604

*CONN
*P *7 I *C 26 0 *L 0
*I *50:A I *C 27 21 *L 0.0101 *D INVX8

*CAP
1 *7 1.47e-05
2 *7:9 4.383e-05
3 *7:8 4.093e-05
4 *7:7 0.00129546
5 *7:6 0.00129546
6 *7:5 5.119e-05
7 *7:4 5.119e-05
8 *7:3 3.618e-05
9 *7:2 3.548e-05
10 *50:A 4.162e-05

*RES
1 *50:A *7:2 4
2 *7:3 *7:2 1.01786
3 *7:3 *7:4 4
4 *7:5 *7:4 1.35714
5 *7:5 *7:6 4
6 *7:7 *7:6 37.3214
7 *7:7 *7:8 4
8 *7:8 *7:9 4
9 *7 *7:9 0.892857
*END

*D_NET *9 0.00358217

*CONN
*I *72:CLK I *C 20 23 *L 0.00173 *D DFFSR
*I *71:CLK I *C 31 21 *L 0.00173 *D DFFSR
*I *58:CLK I *C 28 26 *L 0.00173 *D DFFSR
*I *57:CLK I *C 23 26 *L 0.00173 *D DFFSR
*I *56:CLK I *C 28 23 *L 0.00173 *D DFFSR
*I *49:Y O *C 26 24 *L 0 *D INVX4

*CAP
1 *57:CLK 4.162e-05
2 *9:36 4.577e-05
3 *9:35 4.716e-05
4 *9:32 3.528e-05
5 *9:28 3.528e-05
6 *9:24 0.00019066
7 *9:20 0.00019066
8 *9:15 0.00017722
9 *9:19 0.00015945
10 *9:23 4.716e-05
11 *9:27 4.577e-05
12 *72:CLK 4.162e-05
13 *49:Y 4.162e-05
14 *9:12 3.032e-05
15 *9:8 3.102e-05
16 *9:4 0.0002865
17 *9:7 0.00022318
18 *9:11 2.994e-05
19 *71:CLK 4.162e-05
20 *9:30 4.577e-05
21 *9:26 4.716e-05
22 *9:22 0.00022763
23 *9:18 0.00022763
24 *9:14 0.00015372
25 *9:9 0.00033258
26 *9:5 8.123e-05
27 *9:2 0.00011772
28 *58:CLK 4.162e-05
29 *9:29 4.577e-05
30 *9:25 4.716e-05
31 *9:21 6.314e-05
32 *9:17 6.314e-05
33 *9:13 0.00017886
34 *56:CLK 4.162e-05
35 *9:6 4.577e-05
36 *9:3 4.716e-05
37 *9:1 3.264e-05

*RES
1 *9:1 *9:2 0.678571
2 *9:1 *9:3 4
3 *9:4 *9:2 4.07143
4 *9:2 *9:5 1.92857
5 *9:3 *9:6 1.01786
6 *9:7 *9:4 8.82143
7 *9:4 *9:8 4
8 *9:5 *9:9 4
9 *9:6 *56:CLK 4
10 *9:11 *9:7 0.678571
11 *9:8 *9:12 0.678571
12 *9:9 *9:13 4.75
13 *9:14 *9:9 4.07143
14 *9:15 *9:11 1.17857
15 *9:12 *49:Y 4
16 *9:13 *9:17 4
17 *9:14 *9:18 4
18 *9:19 *9:15 9.67857
19 *9:15 *9:20 4
20 *9:17 *9:21 0.785714
21 *9:18 *9:22 10.2857
22 *9:19 *9:23 4
23 *9:20 *9:24 5.08929
24 *9:21 *9:25 4
25 *9:22 *9:26 4
26 *9:27 *9:23 1.01786
27 *9:24 *9:28 4
28 *9:25 *9:29 1.01786
29 *9:26 *9:30 1.01786
30 *9:27 *72:CLK 4
31 *9:32 *9:28 0.857143
32 *9:29 *58:CLK 4
33 *9:30 *71:CLK 4
34 *9:32 *9:35 4
35 *9:35 *9:36 1.01786
36 *9:36 *57:CLK 4
*END

