*SPEF "IEEE 1481-1998"
*DESIGN "fullsystem"
*DATE "Wed Dec  9 12:37:52 2015"
*VENDOR "Cadence Design Systems, Inc."
*PROGRAM "Encounter"
*VERSION "13.11-s031_1"
*DESIGN_FLOW "COUPLING C" "PIN_CAP NONE" "NAME_SCOPE LOCAL"
*DIVIDER /
*DELIMITER :
*BUS_DELIMITER []
*T_UNIT 1 NS
*C_UNIT 1 PF
*R_UNIT 1 OHM
*L_UNIT 1 HENRY

// MMMC spef file for corner 'rcTyp'

*NAME_MAP

*1 ack_out
*2 clk1
*3 clk2
*4 listener_str_1xreq_sync
*5 listener_str_1xsync_unitxmeta_reg
*6 listener_str_1xsync_unitxn2
*7 n15
*8 n16
*9 n18
*10 n19
*11 n21
*12 n22
*13 n24
*14 n25
*15 n27
*16 n28
*17 n6
*18 n7
*19 rcv
*20 ready
*21 req_in
*22 reset1
*23 reset2
*24 start
*25 talker_str_1xfsm_unitxn4
*26 talker_str_1xfsm_unitxn6
*27 talker_str_1xfsm_unitxn7
*28 talker_str_1xfsm_unitxn8
*29 talker_str_1xfsm_unitxn9
*30 talker_str_1xfsm_unitxstate_nextx1x
*31 talker_str_1xfsm_unitxstate_regx0x
*32 talker_str_1xfsm_unitxstate_regx1x
*33 talker_str_1xsync_unitxmeta_reg
*34 listener_str_1xsync_unitxU4
*35 talker_str_1xfsm_unitxU13
*36 talker_str_1xfsm_unitxU12
*37 talker_str_1xfsm_unitxU11
*38 talker_str_1xfsm_unitxU5
*39 talker_str_1xfsm_unitxreq_buf_reg_reg
*40 talker_str_1xfsm_unitxstate_reg_regx1x
*41 talker_str_1xfsm_unitxstate_reg_regx0x
*42 U1
*43 U7
*44 U8
*45 U13
*46 U14
*47 listener_str_1xsync_unitxsync_reg_reg
*48 listener_str_1xsync_unitxmeta_reg_reg
*49 listener_str_1xfsm_unitxack_buf_reg_reg
*50 talker_str_1xsync_unitxsync_reg_reg
*51 talker_str_1xsync_unitxmeta_reg_reg
*52 U2
*53 U3
*54 U5
*55 U6
*56 U16
*57 U17
*58 U19
*59 U20
*60 U22
*61 U23


*PORTS

*2 I *C 0 30.495
*3 I *C 28.405 0
*22 I *C 29.545 54.96
*23 I *C 55.34 28.025
*24 I *C 55.34 28.405
*20 O *C 33.915 54.96
*19 O *C 55.34 28.025


*D_NET *11 0.00020869

*CONN
*I *57:A I *C 21 33 *L 0.00155 *D INVX1
*I *56:Y O *C 20 32 *L 0 *D INVX1

*CAP
1 *56:Y 2.969e-05
2 *57:A 4.162e-05
3 *11:2 5.05e-05
4 *11:3 3.141e-05
5 *11:4 1.838e-05
6 *11:5 1.203e-05
7 *11:6 2.506e-05

*RES
1 *11:6 *57:A 4
2 *11:6 *11:5 0.339286
3 *11:4 *11:5 0.321429
4 *11:4 *11:3 0.678571
5 *11:2 *11:3 4
6 *56:Y *11:2 2.77692
*END

*D_NET *12 0.00038435

*CONN
*I *57:Y O *C 21 32 *L 0 *D INVX1
*I *47:D I *C 21 31 *L 0.002 *D DFFSR

*CAP
1 *57:Y 3.118e-05
2 *47:D 4.162e-05
3 *12:2 5.199e-05
4 *12:3 0.00011422
5 *12:4 0.00010151
6 *12:5 1.556e-05
7 *12:6 2.827e-05

*RES
1 *12:6 *47:D 4
2 *12:6 *12:5 0.339286
3 *12:5 *12:4 0.339286
4 *12:4 *12:3 3.39286
5 *12:2 *12:3 4
6 *57:Y *12:2 1.66615
*END

*D_NET *14 0.00094965

*CONN
*I *59:Y O *C 24 32 *L 0 *D INVX1
*I *49:D I *C 22 28 *L 0.002 *D DFFSR

*CAP
1 *59:Y 0.00017033
2 *49:D 4.162e-05
3 *14:2 0.00025567
4 *14:3 0.00024296
5 *14:4 0.00019114
6 *14:5 1.761e-05
7 *14:6 3.032e-05

*RES
1 *14:6 *49:D 4
2 *14:6 *14:5 0.678571
3 *14:5 *14:3 0.339286
4 *14:3 *14:2 16.2857
5 *14:4 *14:2 4
6 *14:4 *59:Y 13.8846
*END

*D_NET *10 0.00034141

*CONN
*I *55:Y O *C 22 27 *L 0 *D INVX1
*I *51:D I *C 22 23 *L 0.002 *D DFFSR

*CAP
1 *55:Y 4.162e-05
2 *51:D 1.23e-05
3 *10:2 3.032e-05
4 *10:3 1.761e-05
5 *10:4 7.433e-05
6 *10:5 8.635e-05
7 *10:6 4.577e-05
8 *10:7 3.311e-05

*RES
1 *51:D *10:7 1.11077
2 *10:6 *10:7 4
3 *10:5 *10:6 1.01786
4 *10:5 *10:4 6.10714
5 *10:4 *10:3 0.339286
6 *10:3 *10:2 0.678571
7 *55:Y *10:2 4
*END

*D_NET *9 0.00026679

*CONN
*I *55:A I *C 22 26 *L 0.00155 *D INVX1
*I *54:Y O *C 23 27 *L 0 *D INVX1

*CAP
1 *54:Y 3.618e-05
2 *55:A 4.162e-05
3 *9:2 5.699e-05
4 *9:3 3.032e-05
5 *9:4 4.164e-05
6 *9:5 3.568e-05
7 *9:6 2.436e-05

*RES
1 *9:6 *55:A 4
2 *9:5 *9:6 0.330357
3 *9:5 *9:4 1.69643
4 *9:3 *9:4 0.678571
5 *9:2 *9:3 4
6 *9:2 *54:Y 2.77692
*END

*D_NET *13 0.00026331

*CONN
*I *59:A I *C 24 33 *L 0.00155 *D INVX1
*I *58:Y O *C 25 32 *L 0 *D INVX1

*CAP
1 *58:Y 3.407e-05
2 *59:A 4.162e-05
3 *13:2 3.605e-05
4 *13:3 2.473e-05
5 *13:4 5.488e-05
6 *13:5 3.032e-05
7 *13:6 4.164e-05

*RES
1 *13:3 *59:A 4
2 *13:3 *13:2 0.339286
3 *13:2 *13:6 1.69643
4 *13:6 *13:5 0.678571
5 *13:4 *13:5 4
6 *13:4 *58:Y 2.77692
*END

*D_NET *4 0.00024516

*CONN
*I *58:A I *C 25 33 *L 0.00155 *D INVX1
*I *47:Q O *C 25 32 *L 0 *D DFFSR

*CAP
1 *47:Q 4.162e-05
2 *58:A 4.162e-05
3 *4:2 3.574e-05
4 *4:3 4.207e-05
5 *4:4 2.741e-05
6 *4:5 2.071e-05
7 *4:6 1.148e-05
8 *4:7 2.451e-05

*RES
1 *4:7 *58:A 4
2 *4:6 *4:7 0.339286
3 *4:2 *4:6 0.321429
4 *4:3 *4:2 2.03571
5 *4:3 *4:5 0.678571
6 *4:4 *4:5 0.508929
7 *47:Q *4:4 4
*END

*D_NET *7 0.00026681

*CONN
*I *53:A I *C 25 22 *L 0.00155 *D INVX1
*I *52:Y O *C 26 22 *L 0 *D INVX1

*CAP
1 *52:Y 3.618e-05
2 *53:A 4.162e-05
3 *7:2 5.699e-05
4 *7:3 3.032e-05
5 *7:4 4.164e-05
6 *7:5 3.569e-05
7 *7:6 2.437e-05

*RES
1 *7:6 *53:A 4
2 *7:5 *7:6 0.330357
3 *7:5 *7:4 1.69643
4 *7:3 *7:4 0.678571
5 *7:2 *7:3 4
6 *7:2 *52:Y 2.77692
*END

*D_NET *8 0.00088225

*CONN
*I *53:Y O *C 25 22 *L 0 *D INVX1
*I *50:D I *C 26 26 *L 0.002 *D DFFSR

*CAP
1 *53:Y 6.626e-05
2 *50:D 4.162e-05
3 *8:2 0.00031333
4 *8:3 0.00031434
5 *8:4 8.707e-05
6 *8:5 2.931e-05
7 *8:6 3.032e-05

*RES
1 *8:6 *50:D 4
2 *8:5 *8:6 0.678571
3 *8:2 *8:5 1
4 *8:3 *8:2 14.25
5 *8:4 *8:3 4
6 *53:Y *8:4 1.66615
*END

*D_NET *33 0.00027486

*CONN
*I *52:A I *C 26 22 *L 0.00155 *D INVX1
*I *51:Q O *C 26 22 *L 0 *D DFFSR

*CAP
1 *51:Q 4.162e-05
2 *52:A 4.162e-05
3 *33:2 8.4e-05
4 *33:3 7.129e-05
5 *33:4 1.181e-05
6 *33:5 2.452e-05

*RES
1 *33:5 *52:A 4
2 *33:5 *33:4 0.339286
3 *33:4 *33:3 0.339286
4 *33:3 *33:2 2.54464
5 *51:Q *33:2 4
*END

*D_NET *16 0.00074774

*CONN
*I *61:Y O *C 27 22 *L 0 *D INVX1
*I *48:D I *C 27 31 *L 0.002 *D DFFSR

*CAP
1 *61:Y 4.162e-05
2 *48:D 4.162e-05
3 *16:2 0.00028323
4 *16:3 0.00028323
5 *16:4 3.141e-05
6 *16:5 1.87e-05
7 *16:6 1.761e-05
8 *16:7 3.032e-05

*RES
1 *16:7 *48:D 4
2 *16:6 *16:7 0.678571
3 *16:6 *16:2 0.339286
4 *16:3 *16:2 23.75
5 *16:3 *16:5 0.339286
6 *16:4 *16:5 0.678571
7 *61:Y *16:4 4
*END

*D_NET *15 0.00050679

*CONN
*I *61:A I *C 27 23 *L 0.00155 *D INVX1
*I *60:Y O *C 29 22 *L 0 *D INVX1

*CAP
1 *60:Y 0.00012301
2 *61:A 4.162e-05
3 *15:2 7.465e-05
4 *15:3 6.333e-05
5 *15:4 2.452e-05
6 *15:5 3.584e-05
7 *15:6 0.00014382

*RES
1 *15:4 *61:A 4
2 *15:5 *15:4 0.339286
3 *15:5 *15:2 1.69643
4 *15:3 *15:2 4.75
5 *15:6 *15:3 4
6 *15:6 *60:Y 9.44154
*END

*D_NET *22 0.0027075

*CONN
*P *22 I *C 29 54 *L 0
*I *34:A I *C 29 33 *L 0.00155 *D INVX1

*CAP
1 *22 0.00131156
2 *34:A 4.162e-05
3 *22:2 0.00131757
4 *22:3 1.202e-05
5 *22:4 2.473e-05

*RES
1 *22:4 *34:A 4
2 *22:4 *22:3 0.339286
3 *22:3 *22:2 0.339286
4 *22:2 *22 77.75
*END

*D_NET *27 0.00057233

*CONN
*I *45:Y O *C 30 27 *L 0 *D INVX1
*I *37:B I *C 30 28 *L 0.00276 *D AOI22X1

*CAP
1 *45:Y 6.626e-05
2 *37:B 4.162e-05
3 *27:2 8.707e-05
4 *27:3 9.681e-05
5 *27:4 9.011e-05
6 *27:5 5.883e-05
7 *27:6 5.282e-05
8 *27:7 3.305e-05
9 *27:8 4.576e-05

*RES
1 *27:8 *37:B 4
2 *27:7 *27:8 0.678571
3 *27:7 *27:6 0.339286
4 *27:5 *27:6 2.03571
5 *27:5 *27:4 0.678571
6 *27:3 *27:4 1.35714
7 *27:2 *27:3 4
8 *45:Y *27:2 1.66615
*END

*D_NET *30 0.00064584

*CONN
*I *43:Y O *C 31 29 *L 0 *D AND2X2
*I *40:D I *C 31 31 *L 0.002 *D DFFSR

*CAP
1 *43:Y 4.162e-05
2 *40:D 4.162e-05
3 *30:2 3.032e-05
4 *30:3 1.761e-05
5 *30:4 0.00022586
6 *30:5 0.00022586
7 *30:6 2.512e-05
8 *30:7 3.783e-05

*RES
1 *30:7 *40:D 4
2 *30:6 *30:7 0.678571
3 *30:6 *30:5 0.339286
4 *30:4 *30:5 4.75
5 *30:4 *30:3 0.339286
6 *30:2 *30:3 0.678571
7 *43:Y *30:2 4
*END

*D_NET *17 0.00027991

*CONN
*I *44:A I *C 34 23 *L 0.00155 *D INVX1
*I *42:Y O *C 33 23 *L 0 *D OR2X2

*CAP
1 *42:Y 6.757e-05
2 *44:A 4.162e-05
3 *17:2 8.838e-05
4 *17:3 2.99e-05
5 *17:4 1.687e-05
6 *17:5 1.127e-05
7 *17:6 2.43e-05

*RES
1 *17:6 *44:A 4
2 *17:6 *17:5 0.339286
3 *17:4 *17:5 0.321429
4 *17:4 *17:3 0.678571
5 *17:2 *17:3 4
6 *42:Y *17:2 4.44308
*END

*D_NET *20 0.00261314

*CONN
*P *20 O *C 33 54 *L 0
*I *36:Y O *C 34 33 *L 0 *D NOR2X1

*CAP
1 *20 0.00125911
2 *36:Y 4.162e-05
3 *20:2 0.0012648
4 *20:3 1.729e-05
5 *20:4 3.032e-05

*RES
1 *20:2 *20 73.6786
2 *20:2 *20:3 0.321429
3 *20:4 *20:3 0.678571
4 *36:Y *20:4 4
*END

*D_NET *21 0.0005715

*CONN
*I *60:A I *C 29 22 *L 0.00155 *D INVX1
*I *39:Q O *C 32 22 *L 0 *D DFFSR

*CAP
1 *39:Q 4.162e-05
2 *60:A 4.162e-05
3 *21:2 1.186e-05
4 *21:3 2.457e-05
5 *21:4 6.062e-05
6 *21:5 6.132e-05
7 *21:6 0.00015223
8 *21:7 0.00015223
9 *21:8 2.543e-05

*RES
1 *21:3 *60:A 4
2 *21:3 *21:2 0.339286
3 *21:2 *21:8 0.339286
4 *21:7 *21:8 4
5 *21:7 *21:6 9.5
6 *21:5 *21:6 4
7 *21:5 *21:4 2.54464
8 *39:Q *21:4 4
*END

*D_NET *18 0.0029153

*CONN
*I *44:Y O *C 34 22 *L 0 *D INVX1
*I *41:D I *C 31 26 *L 0.002 *D DFFSR
*I *39:D I *C 28 23 *L 0.002 *D DFFSR

*CAP
1 *44:Y 6.267e-05
2 *39:D 4.162e-05
3 *41:D 4.162e-05
4 *18:3 6.093e-05
5 *18:4 4.752e-05
6 *18:5 8.348e-05
7 *18:6 0.00011969
8 *18:7 1.761e-05
9 *18:8 3.032e-05
10 *18:9 9.694e-05
11 *18:10 9.764e-05
12 *18:11 8.588e-05
13 *18:12 0.0001851
14 *18:13 0.00010641
15 *18:14 9.3e-05
16 *18:15 1.482e-05
17 *18:16 2.753e-05
18 *18:11 *25:12 0.00031715
19 *18:12 *25:13 0.00031715
20 *18:12 *25:13 0.00045811
21 *18:6 *25:14 0.00045811
22 *18:12 *25:14 3.524e-05
23 *18:6 *25:15 3.524e-05
24 *18:16 *25:16 2.9e-06
25 *18:15 *25:17 2.9e-06
26 *18:14 *25:18 3.306e-05
27 *18:13 *25:19 3.306e-05
28 *18:14 *25:8 3.2e-06
29 *18:13 *25:9 3.2e-06
30 *18:3 *25:18 1.6e-06
31 *18:4 *25:19 1.6e-06

*RES
1 *18:5 *44:Y 2.77692
2 *18:16 *41:D 4
3 *18:8 *39:D 4
4 *18:9 *18:5 4
5 *18:15 *18:16 0.678571
6 *18:8 *18:7 0.678571
7 *18:9 *18:10 4.75
8 *18:14 *18:15 0.339286
9 *18:7 *18:4 0.339286
10 *18:11 *18:10 4
11 *18:13 *18:14 4.75
12 *18:4 *18:3 4.07143
13 *18:12 *18:11 7.46429
14 *18:12 *18:13 4
15 *18:6 *18:3 4
16 *18:6 *18:12 10.1786
*END

*D_NET *25 0.00415857

*CONN
*I *51:R I *C 25 24 *L 0.00497 *D DFFSR
*I *50:R I *C 28 25 *L 0.00497 *D DFFSR
*I *41:R I *C 34 25 *L 0.00497 *D DFFSR
*I *40:R I *C 34 30 *L 0.00497 *D DFFSR
*I *39:R I *C 31 24 *L 0.00497 *D DFFSR
*I *38:Y O *C 33 27 *L 0 *D INVX1

*CAP
1 *39:R 4.162e-05
2 *41:R 4.162e-05
3 *38:Y 0.00015161
4 *40:R 4.162e-05
5 *51:R 4.162e-05
6 *50:R 4.162e-05
7 *25:6 0.00013782
8 *25:7 0.00013712
9 *25:8 4.018e-05
10 *25:9 4.088e-05
11 *25:10 9.736e-05
12 *25:11 9.736e-05
13 *25:12 0.00016198
14 *25:13 0.00010652
15 *25:14 0.00026032
16 *25:15 0.00023375
17 *25:16 0.00014545
18 *25:17 0.00014615
19 *25:18 2.98e-05
20 *25:19 2.24e-05
21 *25:20 2.553e-05
22 *25:21 3.223e-05
23 *25:22 0.0001025
24 *25:23 4.323e-05
25 *25:24 4.253e-05
26 *25:25 0.00014074
27 *25:26 5.249e-05
28 *25:12 *18:11 0.00031715
29 *25:13 *18:12 0.00031715
30 *25:13 *18:12 0.00045811
31 *25:14 *18:6 0.00045811
32 *25:14 *18:12 3.524e-05
33 *25:15 *18:6 3.524e-05
34 *25:16 *18:16 2.9e-06
35 *25:17 *18:15 2.9e-06
36 *25:18 *18:14 3.306e-05
37 *25:19 *18:13 3.306e-05
38 *25:8 *18:14 3.2e-06
39 *25:9 *18:13 3.2e-06
40 *25:18 *18:3 1.6e-06
41 *25:19 *18:4 1.6e-06

*RES
1 *25:10 *40:R 4
2 *25:11 *25:10 4.75
3 *25:25 *25:11 4
4 *38:Y *25:25 9.44154
5 *25:7 *51:R 4
6 *25:24 *41:R 4
7 *38:Y *25:26 1.66615
8 *25:7 *25:6 2.03571
9 *25:8 *50:R 4
10 *25:23 *25:24 1.35714
11 *25:16 *25:26 4
12 *25:21 *39:R 4
13 *25:15 *25:6 4
14 *25:9 *25:8 1.35714
15 *25:22 *25:23 4
16 *25:17 *25:16 9.5
17 *25:21 *25:20 0.678571
18 *25:15 *25:14 12.2143
19 *25:14 *25:9 4
20 *25:12 *25:22 4.75
21 *25:12 *25:17 4
22 *25:19 *25:20 0.678571
23 *25:14 *25:13 8.82143
24 *25:13 *25:12 6.78571
25 *25:19 *25:18 1.35714
26 *25:18 *25:13 4
*END

*D_NET *29 0.0010984

*CONN
*I *42:B I *C 32 23 *L 0.00234 *D OR2X2
*I *37:Y O *C 30 27 *L 0 *D AOI22X1

*CAP
1 *37:Y 4.162e-05
2 *42:B 4.162e-05
3 *29:2 3.668e-05
4 *29:3 4.2e-05
5 *29:4 0.00012621
6 *29:5 0.00012621
7 *29:6 0.00024832
8 *29:7 0.00024762
9 *29:8 9.637e-05
10 *29:9 9.175e-05

*RES
1 *29:7 *42:B 4
2 *29:7 *29:6 9.10714
3 *29:4 *29:6 4
4 *29:5 *29:4 6.78571
5 *29:9 *29:5 4
6 *29:9 *29:8 4.07143
7 *29:3 *29:8 1.35714
8 *29:3 *29:2 1.59821
9 *37:Y *29:2 4
*END

*D_NET *1 0.00054866

*CONN
*I *54:A I *C 23 26 *L 0.00155 *D INVX1
*I *49:Q O *C 25 27 *L 0 *D DFFSR

*CAP
1 *49:Q 4.162e-05
2 *54:A 4.162e-05
3 *1:2 6.221e-05
4 *1:3 6.291e-05
5 *1:4 0.00013928
6 *1:5 0.00013928
7 *1:6 2.543e-05
8 *1:7 1.18e-05
9 *1:8 2.451e-05

*RES
1 *1:8 *54:A 4
2 *1:8 *1:7 0.339286
3 *1:7 *1:6 0.339286
4 *1:5 *1:6 4
5 *1:5 *1:4 9.5
6 *1:3 *1:4 4
7 *1:3 *1:2 2.54464
8 *49:Q *1:2 4
*END

*D_NET *23 0.00472101

*CONN
*P *23 I *C 55 28 *L 0
*I *38:A I *C 32 28 *L 0.00155 *D INVX1

*CAP
1 *23 0.0007675
2 *38:A 4.162e-05
3 *23:2 0.00078797
4 *23:3 2.543e-05
5 *23:4 1.201e-05
6 *23:5 2.472e-05
7 *23 *24 0.00153088
8 *23:2 *24:2 0.00153088

*RES
1 *23:5 *38:A 4
2 *23:4 *23:5 0.339286
3 *23:4 *23:3 0.339286
4 *23:2 *23:3 4
5 *23:2 *23 79.7857
*END

*D_NET *26 0.00056629

*CONN
*I *46:Y O *C 28 27 *L 0 *D INVX1
*I *37:D I *C 30 28 *L 0.00291 *D AOI22X1

*CAP
1 *46:Y 7.96e-05
2 *37:D 4.162e-05
3 *26:2 3.825e-05
4 *26:3 2.522e-05
5 *26:4 0.00010041
6 *26:5 3.884e-05
7 *26:6 0.00010862
8 *26:7 0.00010862
9 *26:8 2.511e-05

*RES
1 *26:2 *37:D 4
2 *26:3 *26:2 0.678571
3 *26:8 *26:3 0.321429
4 *26:7 *26:8 4
5 *26:6 *26:7 2.03571
6 *26:5 *26:6 4
7 *26:4 *26:5 4
8 *46:Y *26:4 6.10923
*END

*D_NET *24 0.00681647

*CONN
*P *24 I *C 55 28 *L 0
*I *37:C I *C 30 28 *L 0.00288 *D AOI22X1

*CAP
1 *24 0.00087543
2 *37:C 4.162e-05
3 *24:2 0.0008959
4 *24:3 3.884e-05
5 *24 *31:16 0.00074002
6 *24:2 *31:17 0.00074002
7 *24 *31:17 7.048e-05
8 *24:2 *31:12 7.048e-05
9 *24 *31:12 0.00014096
10 *24:2 *31:13 0.00014096
11 *24 *23 0.00153088
12 *24:2 *23:2 0.00153088

*RES
1 *24:3 *37:C 4
2 *24:2 *24:3 4
3 *24:2 *24 89.9643
*END

*D_NET *6 0.00156869

*CONN
*I *49:R I *C 25 29 *L 0.00497 *D DFFSR
*I *48:R I *C 30 30 *L 0.00497 *D DFFSR
*I *47:R I *C 24 30 *L 0.00497 *D DFFSR
*I *34:Y O *C 29 32 *L 0 *D INVX1

*CAP
1 *49:R 4.162e-05
2 *48:R 4.162e-05
3 *34:Y 9.356e-05
4 *47:R 4.162e-05
5 *6:4 5.548e-05
6 *6:5 6.01e-05
7 *6:6 0.00011519
8 *6:7 0.00011589
9 *6:8 4.723e-05
10 *6:9 4.191e-05
11 *6:10 0.00040005
12 *6:11 0.00040005
13 *6:12 0.00011437

*RES
1 *34:Y *6:12 4.99846
2 *6:6 *6:12 4
3 *6:7 *48:R 4
4 *6:7 *6:6 8.14286
5 *6:10 *6:7 4
6 *6:11 *6:10 20.3571
7 *6:9 *49:R 4
8 *6:4 *47:R 4
9 *6:4 *6:11 4
10 *6:9 *6:8 1.35714
11 *6:5 *6:4 2.03571
12 *6:5 *6:8 1.35714
*END

*D_NET *5 0.00161444

*CONN
*I *56:A I *C 20 33 *L 0.00155 *D INVX1
*I *48:Q O *C 31 32 *L 0 *D DFFSR

*CAP
1 *48:Q 4.162e-05
2 *56:A 4.162e-05
3 *5:2 2.457e-05
4 *5:3 1.186e-05
5 *5:4 0.00065417
6 *5:5 0.00065417
7 *5:6 8.085e-05
8 *5:7 8.015e-05
9 *5:8 2.543e-05

*RES
1 *5:2 *56:A 4
2 *5:3 *5:2 0.339286
3 *5:3 *5:8 0.339286
4 *5:5 *5:8 4
5 *5:5 *5:4 36.6429
6 *5:6 *5:4 4
7 *5:7 *5:6 2.54464
8 *48:Q *5:7 4
*END

*D_NET *28 0.0021294

*CONN
*I *43:B I *C 31 28 *L 0.00187 *D AND2X2
*I *36:B I *C 33 33 *L 0.00237 *D NOR2X1
*I *35:Y O *C 32 33 *L 0 *D XOR2X1

*CAP
1 *43:B 4.162e-05
2 *35:Y 4.162e-05
3 *36:B 4.162e-05
4 *28:3 4.971e-05
5 *28:4 6.312e-05
6 *28:5 0.00023207
7 *28:6 0.00023137
8 *28:7 1.797e-05
9 *28:8 3.511e-05
10 *28:9 3.511e-05
11 *28:10 2.699e-05
12 *28:11 2.543e-05
13 *28:12 4.184e-05
14 *28:13 4.184e-05
15 *28:14 2.511e-05
16 *28:15 1.127e-05
17 *28:16 2.43e-05
18 *28:13 *31:18 0.00021144
19 *28:12 *31:19 0.00021144
20 *28:8 *31:20 6.16e-06
21 *28:9 *31:21 6.16e-06
22 *28:8 *31:16 5.51e-06
23 *28:9 *31:17 5.51e-06
24 *28:3 *31:10 5.038e-05
25 *28:4 *31:11 5.038e-05
26 *28:5 *31:22 0.00016375
27 *28:6 *31:23 0.00016375
28 *28:13 *32:7 4.309e-05
29 *28:12 *32:8 4.309e-05
30 *28:10 *32:9 6.613e-05
31 *28:7 *32:10 6.613e-05
32 *28:3 *32:9 2.519e-05
33 *28:4 *32:10 2.519e-05

*RES
1 *28:16 *36:B 4
2 *28:6 *43:B 4
3 *28:15 *28:16 0.339286
4 *28:6 *28:5 8.82143
5 *28:14 *28:15 0.321429
6 *28:9 *28:5 4
7 *28:13 *28:14 4
8 *28:9 *28:8 2.03571
9 *28:12 *28:13 5.42857
10 *28:4 *28:8 4
11 *28:11 *28:12 4
12 *28:4 *28:3 5.42857
13 *28:10 *35:Y 4
14 *28:10 *28:11 0.339286
15 *28:3 *28:7 0.339286
16 *28:7 *28:10 1.35714
*END

*D_NET *31 0.00467505

*CONN
*I *46:A I *C 28 28 *L 0.00155 *D INVX1
*I *41:Q O *C 35 27 *L 0 *D DFFSR
*I *37:A I *C 30 28 *L 0.00282 *D AOI22X1
*I *36:A I *C 33 33 *L 0.00224 *D NOR2X1
*I *35:B I *C 31 33 *L 0.00567 *D XOR2X1

*CAP
1 *46:A 4.162e-05
2 *37:A 4.162e-05
3 *36:A 4.162e-05
4 *41:Q 4.162e-05
5 *35:B 4.162e-05
6 *31:5 3.867e-05
7 *31:6 2.526e-05
8 *31:7 1.234e-05
9 *31:8 2.505e-05
10 *31:9 4.657e-05
11 *31:10 9.921e-05
12 *31:11 7.136e-05
13 *31:12 0.00011998
14 *31:13 0.00011665
15 *31:14 9.685e-05
16 *31:15 9.615e-05
17 *31:16 0.00012675
18 *31:17 0.00013008
19 *31:18 9.037e-05
20 *31:19 9.037e-05
21 *31:20 5.88e-05
22 *31:21 5.88e-05
23 *31:22 0.00012632
24 *31:23 0.00013603
25 *31:24 2.543e-05
26 *31:25 1.18e-05
27 *31:26 2.451e-05
28 *31:27 2.511e-05
29 *31:28 1.203e-05
30 *31:29 2.506e-05
31 *31:18 *28:13 0.00021144
32 *31:19 *28:12 0.00021144
33 *31:20 *28:8 6.16e-06
34 *31:21 *28:9 6.16e-06
35 *31:16 *28:8 5.51e-06
36 *31:17 *28:9 5.51e-06
37 *31:10 *28:3 5.038e-05
38 *31:11 *28:4 5.038e-05
39 *31:22 *28:5 0.00016375
40 *31:23 *28:6 0.00016375
41 *31:16 *24 0.00074002
42 *31:17 *24:2 0.00074002
43 *31:17 *24 7.048e-05
44 *31:12 *24:2 7.048e-05
45 *31:12 *24 0.00014096
46 *31:13 *24:2 0.00014096

*RES
1 *31:29 *36:A 4
2 *31:29 *31:28 0.339286
3 *31:27 *31:28 0.321429
4 *31:18 *31:27 4
5 *31:19 *31:18 6.10714
6 *31:9 *35:B 4
7 *31:10 *31:19 4
8 *31:10 *31:9 1.35714
9 *31:11 *31:10 4.75
10 *31:20 *31:11 4
11 *31:15 *41:Q 4
12 *31:21 *31:20 2.03571
13 *31:8 *46:A 4
14 *31:15 *31:14 4.58036
15 *31:22 *31:21 4
16 *31:26 *37:A 4
17 *31:8 *31:7 0.339286
18 *31:16 *31:14 4
19 *31:23 *31:22 11.5357
20 *31:26 *31:25 0.339286
21 *31:7 *31:6 0.339286
22 *31:17 *31:16 14.25
23 *31:17 *31:23 4
24 *31:24 *31:25 0.339286
25 *31:6 *31:5 1.35714
26 *31:12 *31:17 1.35714
27 *31:12 *31:24 4
28 *31:13 *31:5 4
29 *31:13 *31:12 7.46429
*END

*D_NET *2 0.00425566

*CONN
*P *2 I *C 0 30 *L 0
*I *49:CLK I *C 22 28 *L 0.00173 *D DFFSR
*I *48:CLK I *C 27 31 *L 0.00173 *D DFFSR
*I *47:CLK I *C 21 31 *L 0.00173 *D DFFSR

*CAP
1 *2 0.00128443
2 *47:CLK 4.162e-05
3 *48:CLK 4.162e-05
4 *49:CLK 4.162e-05
5 *2:4 8.666e-05
6 *2:5 8.736e-05
7 *2:6 0.00037184
8 *2:7 0.00037184
9 *2:8 3.743e-05
10 *2:9 0.00132186
11 *2:10 3.375e-05
12 *2:11 2.543e-05
13 *2:12 7.273e-05
14 *2:13 0.00020442
15 *2:14 0.00013169
16 *2:15 2.109e-05
17 *2:16 2.109e-05
18 *2:17 2.543e-05
19 *2:18 3.375e-05

*RES
1 *2:18 *49:CLK 4
2 *2:10 *48:CLK 4
3 *2:17 *2:18 0.339286
4 *2:11 *2:10 0.339286
5 *2:16 *2:17 4
6 *2:6 *2:11 4
7 *2:15 *2:16 0.0357143
8 *2:7 *2:6 19.0357
9 *2:14 *2:15 4
10 *2:12 *2:7 4
11 *2:14 *2:13 3.39286
12 *2:13 *2:12 1.69643
13 *2:8 *2:13 4
14 *2 *2:9 77.2321
15 *2:9 *2:8 0.982143
16 *2:4 *47:CLK 4
17 *2:5 *2:9 4
18 *2:5 *2:4 3.05357
*END

*D_NET *3 0.00627051

*CONN
*P *3 I *C 28 0 *L 0
*I *51:CLK I *C 22 23 *L 0.00173 *D DFFSR
*I *50:CLK I *C 25 26 *L 0.00173 *D DFFSR
*I *41:CLK I *C 31 26 *L 0.00173 *D DFFSR
*I *40:CLK I *C 31 31 *L 0.00173 *D DFFSR
*I *39:CLK I *C 28 23 *L 0.00173 *D DFFSR

*CAP
1 *50:CLK 4.162e-05
2 *51:CLK 4.162e-05
3 *41:CLK 4.162e-05
4 *3 1.47e-05
5 *40:CLK 4.162e-05
6 *39:CLK 4.162e-05
7 *3:6 0.00018739
8 *3:7 0.00018926
9 *3:8 3.488e-05
10 *3:9 3.488e-05
11 *3:10 0.00019621
12 *3:11 0.00036482
13 *3:12 0.00019095
14 *3:13 4.256e-05
15 *3:14 4.256e-05
16 *3:15 0.00033173
17 *3:16 0.0005229
18 *3:17 0.00019067
19 *3:18 0.00019067
20 *3:19 2.543e-05
21 *3:20 3.375e-05
22 *3:21 2.543e-05
23 *3:22 3.375e-05
24 *3:23 3.433e-05
25 *3:24 3.433e-05
26 *3:25 2.543e-05
27 *3:26 3.375e-05
28 *3:27 0.00144694
29 *3:28 0.00144694
30 *3:29 2.225e-05
31 *3:30 2.225e-05
32 *3:31 3.412e-05
33 *3:32 3.375e-05
34 *3:33 2.543e-05
35 *3:34 0.00019117
36 *3:35 2.543e-05
37 *3:36 3.375e-05

*RES
1 *3:32 *40:CLK 4
2 *3:26 *41:CLK 4
3 *3:33 *3:32 0.339286
4 *3:25 *3:26 0.339286
5 *3:13 *3:33 4
6 *3:24 *3:25 4
7 *3:14 *3:13 0.964286
8 *3 *3:31 0.892857
9 *3:23 *3:24 0.964286
10 *3:15 *3:14 4
11 *3:30 *3:31 4
12 *3:16 *3:23 4
13 *3:16 *3:15 8.82143
14 *3:29 *3:30 0.107143
15 *3:34 *3:16 5.08929
16 *3:36 *39:CLK 4
17 *3:20 *50:CLK 4
18 *3:22 *51:CLK 4
19 *3:28 *3:29 4
20 *3:6 *3:34 4
21 *3:35 *3:36 0.339286
22 *3:19 *3:20 0.339286
23 *3:22 *3:21 0.339286
24 *3:28 *3:27 41.7321
25 *3:7 *3:6 9.89286
26 *3:7 *3:35 4
27 *3:8 *3:19 4
28 *3:12 *3:21 4
29 *3:10 *3:27 4
30 *3:10 *3:7 0.107143
31 *3:9 *3:8 0.607143
32 *3:12 *3:11 10.9286
33 *3:11 *3:10 10
34 *3:18 *3:9 4
35 *3:17 *3:11 4
36 *3:17 *3:18 5.08929
*END

*D_NET *32 0.00233174

*CONN
*I *42:A I *C 32 23 *L 0.0023 *D OR2X2
*I *40:Q O *C 35 32 *L 0 *D DFFSR
*I *35:A I *C 32 33 *L 0.0054 *D XOR2X1

*CAP
1 *42:A 4.162e-05
2 *40:Q 2.517e-05
3 *35:A 4.162e-05
4 *32:3 0.00030365
5 *32:4 0.00030295
6 *32:5 5.998e-05
7 *32:6 5.998e-05
8 *32:7 0.00012507
9 *32:8 0.00012581
10 *32:9 4.68e-05
11 *32:10 4.75e-05
12 *32:11 0.00038837
13 *32:12 0.00038837
14 *32:13 2.121e-05
15 *32:14 4.598e-05
16 *32:15 3.884e-05
17 *32:7 *28:13 4.309e-05
18 *32:8 *28:12 4.309e-05
19 *32:9 *28:10 6.613e-05
20 *32:10 *28:7 6.613e-05
21 *32:9 *28:3 2.519e-05
22 *32:10 *28:4 2.519e-05

*RES
1 *32:4 *42:A 4
2 *32:4 *32:3 10.1786
3 *32:6 *32:3 4
4 *40:Q *32:14 1.11077
5 *32:6 *32:5 0.642857
6 *32:15 *32:14 4
7 *32:9 *35:A 4
8 *32:12 *32:5 4
9 *32:7 *32:15 4
10 *32:10 *32:9 4.80357
11 *32:12 *32:11 10.5179
12 *32:8 *32:7 10.1786
13 *32:8 *32:10 4
14 *32:13 *32:11 4
15 *32:13 *32:8 0.0357143
*END

*D_NET *19 0.00402854

*CONN
*P *19 O *C 55 28 *L 0
*I *50:Q O *C 29 27 *L 0 *D DFFSR
*I *45:A I *C 30 26 *L 0.00155 *D INVX1
*I *43:A I *C 31 28 *L 0.0018 *D AND2X2

*CAP
1 *19 0.00145159
2 *45:A 4.162e-05
3 *50:Q 7.96e-05
4 *43:A 4.162e-05
5 *19:4 3.493e-05
6 *19:5 3.825e-05
7 *19:6 0.00017903
8 *19:7 0.00017044
9 *19:8 3.825e-05
10 *19:9 2.301e-05
11 *19:10 2.802e-05
12 *19:11 1.499e-05
13 *19:12 1.207e-05
14 *19:13 6.978e-05
15 *19:14 6.978e-05
16 *19:15 7.114e-05
17 *19:16 7.114e-05
18 *19:17 2.752e-05
19 *19:18 0.00146535
20 *19:19 0.00010041

*RES
1 *50:Q *19:19 6.10923
2 *19:10 *45:A 4
3 *19:5 *19:19 4
4 *19:11 *19:10 0.330357
5 *19:5 *19:4 0.678571
6 *19:4 *19:11 0.321429
7 *19:16 *19:4 4
8 *19:8 *43:A 4
9 *19:16 *19:15 2.71429
10 *19:9 *19:8 0.678571
11 *19:18 *19 42.0268
12 *19:7 *19:15 4
13 *19:12 *19:9 0.196429
14 *19:17 *19:18 4
15 *19:7 *19:6 4.07143
16 *19:6 *19:12 0.678571
17 *19:13 *19:17 4
18 *19:14 *19:6 4
19 *19:14 *19:13 1.71429
*END

