* File: /media/ntfsdrive1/workspace/ProjectDIC2/runsets/pex/extracted.sp.pex
* Created: Mon Dec  7 09:37:15 2015
* Program "Calibre xRC"
* Version "v2013.3_28.19"
* Nominal Temperature: 27C
* Circuit Temperature: 27C
* 
.subckt PM_FULLSYSTEM%X153/CLK 3 7 16
c25 16 0 120.202f
c26 7 0 0.190169f
c27 3 0 0.260333f
r28 14 16 0.52
r29 5 16 1.98872
r30 5 7 41.34
r31 1 14 1.98872
r32 1 3 49.14
.ends

.subckt PM_FULLSYSTEM%X153/D 3 7 16
c23 16 0 0.0788527f
c24 7 0 0.222853f
c25 3 0 0.118286f
r26 5 16 1.98872
r27 5 7 60.84
r28 1 16 1.98872
r29 1 3 29.64
.ends

.subckt PM_FULLSYSTEM%X153/11 1 2
c12 1 0 0.114838f
r13 1 2 2.67462
.ends

.subckt PM_FULLSYSTEM%X153/12 1 2 3 6 12 13
c57 13 0 0.0317609f
c58 12 0 0.0312611f
c59 6 0 0.0571756f
c60 3 0 0.0568657f
c61 1 0 0.017774f
r62 12 13 0.447336
r63 7 12 0.156557
r64 6 8 0.212317
r65 6 7 1.92923
r66 4 13 1.63692
r67 3 8 0.833077
r68 2 12 0.239259
r69 1 4 0.0223169
.ends

.subckt PM_FULLSYSTEM%X153/13 1 4 7 8 9 13 15 17 18 19 21 22 31 32 35 38 41
c103 41 0 0.0358147f
c104 38 0 0.0122682f
c105 35 0 0.0334784f
c106 32 0 0.024819f
c107 31 0 0.0787554f
c108 22 0 0.0390555f
c109 21 0 0.0120237f
c110 20 0 0.0154444f
c111 19 0 0.0232198f
c112 18 0 0.0538496f
c113 15 0 0.211747f
c114 13 0 0.236958f
c115 9 0 0.0513732f
c116 8 0 0.0277527f
c117 7 0 0.286366f
c118 4 0 0.385646f
c119 1 0 0.0400789f
r120 36 41 4.7687
r121 35 36 89.3538
r122 33 35 1.38846
r123 31 33 0.212317
r124 31 32 3.85846
r125 24 38 0.244808
r126 23 32 0.227973
r127 22 38 1.79769
r128 21 24 0.0542857
r129 21 23 0.352857
r130 18 19 5.57143
r131 15 17 46.8
r132 11 13 53.04
r133 10 20 3.30287
r134 9 11 4.35808
r135 9 10 10.14
r136 7 15 4.35808
r137 7 8 91.26
r138 5 20 0.858359
r139 5 18 25.74
r140 4 8 4.35808
r141 4 19 161.85
r142 1 20 3.30287
r143 1 41 13.26
.ends

.subckt PM_FULLSYSTEM%X153/14 3 7 9 10 13 14 16 19 21 22 32
c92 32 0 0.014798f
c93 22 0 0.00583975f
c94 21 0 0.0948189f
c95 19 0 0.0527956f
c96 16 0 0.0813238f
c97 14 0 0.0295924f
c98 13 0 0.0125778f
c99 10 0 0.0894828f
c100 9 0 0.110414f
c101 7 0 0.188036f
c102 3 0 0.221655f
r103 31 32 0.38
r104 27 32 0.0223169
r105 23 31 0.0223169
r106 21 31 0.19
r107 21 22 3.36154
r108 19 37 2.86
r109 18 19 89.3538
r110 16 24 0.212317
r111 16 18 3.23
r112 14 35 4.7687
r113 13 14 89.3538
r114 11 22 0.212317
r115 11 13 0.774615
r116 10 24 0.906154
r117 10 23 2.30923
r118 9 27 2.44077
r119 5 37 1.98872
r120 5 7 49.14
r121 3 35 49.14
.ends

.subckt PM_FULLSYSTEM%X153/15 1 2 3 7 13
c41 13 0 0.0799439f
c42 7 0 0.0286644f
c43 3 0 0.0339814f
c44 2 0 0.0790781f
r45 11 13 3.05462
r46 7 11 0.212317
r47 3 13 0.377056
r48 2 3 0.13775
r49 1 7 0.336154
.ends

.subckt PM_FULLSYSTEM%X153/16 1 3 4 5 8 11 14 16 18 22 25 26 27 28 29 32 38 45
+ 48 52 53 60
c117 60 0 0.0505372f
c118 53 0 0.00505292f
c119 52 0 0.00726499f
c120 51 0 0.00693894f
c121 48 0 0.0241962f
c122 45 0 0.00598719f
c123 38 0 0.0114902f
c124 32 0 0.035541f
c125 29 0 0.0514115f
c126 28 0 0.11829f
c127 27 0 0.0328601f
c128 26 0 0.00944134f
c129 25 0 0.444346f
c130 22 0 0.300254f
c131 18 0 0.0937891f
c132 16 0 0.0660798f
c133 14 0 0.198679f
c134 11 0 0.0838301f
c135 8 0 0.175127f
c136 5 0 0.0206249f
c137 4 0 0.586224f
c138 1 0 0.216676f
r139 59 60 3.4687
r140 49 59 3.9
r141 48 49 89.3538
r142 46 53 0.160909
r143 46 48 0.774615
r144 45 53 0.0418175
r145 45 52 0.38
r146 40 52 0.244808
r147 39 51 0.160909
r148 38 53 0.160909
r149 38 39 0.496923
r150 34 51 0.0418175
r151 32 55 4.7687
r152 31 32 89.3538
r153 29 51 0.160909
r154 29 31 1.62231
r155 28 34 3.27385
r156 27 40 0.0542857
r157 24 25 166.14
r158 20 22 87.75
r159 19 26 0.858359
r160 18 24 4.35808
r161 18 19 29.64
r162 16 20 4.35808
r163 16 60 15.21
r164 12 26 3.30287
r165 12 14 51.48
r166 11 26 3.30287
r167 10 59 1.98872
r168 10 11 37.83
r169 8 55 49.14
r170 4 25 4.35808
r171 4 5 203.58
r172 1 5 4.35808
r173 1 3 46.8
.ends

.subckt PM_FULLSYSTEM%X154/CLK 3 7 16
c24 16 0 0.0621228f
c25 7 0 0.184472f
c26 3 0 0.253963f
r27 14 16 0.52
r28 5 16 1.98872
r29 5 7 41.34
r30 1 14 1.98872
r31 1 3 49.14
.ends

.subckt PM_FULLSYSTEM%X154/D 3 7 16
c28 16 0 0.0728853f
c29 7 0 0.208337f
c30 3 0 0.118286f
r31 5 16 1.98872
r32 5 7 60.84
r33 1 16 1.98872
r34 1 3 29.64
.ends

.subckt PM_FULLSYSTEM%X154/11 1 2
c15 1 0 0.0877724f
r16 1 2 2.67462
.ends

.subckt PM_FULLSYSTEM%X154/12 1 2 3 6 12 13
c56 13 0 0.0304138f
c57 12 0 0.0329135f
c58 6 0 0.0626081f
c59 3 0 0.0542292f
c60 1 0 0.0176082f
r61 12 13 0.447336
r62 7 12 0.156557
r63 6 8 0.212317
r64 6 7 1.92923
r65 4 13 1.63692
r66 3 8 0.833077
r67 2 12 0.239259
r68 1 4 0.0223169
.ends

.subckt PM_FULLSYSTEM%X154/13 1 4 7 8 9 13 15 17 18 19 21 22 31 32 35 38 41
c105 41 0 0.0358147f
c106 38 0 0.0122682f
c107 35 0 0.0334784f
c108 32 0 0.0226449f
c109 31 0 0.0784022f
c110 22 0 0.0440092f
c111 21 0 0.0120237f
c112 20 0 0.0154444f
c113 19 0 0.0232198f
c114 18 0 0.0516685f
c115 15 0 0.211747f
c116 13 0 0.236958f
c117 9 0 0.0513732f
c118 8 0 0.0150633f
c119 7 0 0.209472f
c120 4 0 0.388196f
c121 1 0 0.0400789f
r122 36 41 4.7687
r123 35 36 89.3538
r124 33 35 1.38846
r125 31 33 0.212317
r126 31 32 3.85846
r127 24 38 0.244808
r128 23 32 0.227973
r129 22 38 1.79769
r130 21 24 0.0542857
r131 21 23 0.352857
r132 18 19 5.57143
r133 15 17 46.8
r134 11 13 53.04
r135 10 20 3.30287
r136 9 11 4.35808
r137 9 10 10.14
r138 7 15 4.35808
r139 7 8 91.26
r140 5 20 0.858359
r141 5 18 25.74
r142 4 8 4.35808
r143 4 19 161.85
r144 1 20 3.30287
r145 1 41 13.26
.ends

.subckt PM_FULLSYSTEM%X154/14 3 7 9 10 13 14 16 19 21 22 32
c92 32 0 0.013911f
c93 22 0 0.005629f
c94 21 0 0.0811533f
c95 19 0 0.0527956f
c96 16 0 0.0814344f
c97 14 0 0.0295924f
c98 13 0 0.0132545f
c99 10 0 0.0921852f
c100 9 0 0.109862f
c101 7 0 0.188187f
c102 3 0 0.221655f
r103 31 32 0.38
r104 27 32 0.0223169
r105 23 31 0.0223169
r106 21 31 0.19
r107 21 22 3.36154
r108 19 37 2.86
r109 18 19 89.3538
r110 16 24 0.212317
r111 16 18 3.23
r112 14 35 4.7687
r113 13 14 89.3538
r114 11 22 0.212317
r115 11 13 0.774615
r116 10 24 0.906154
r117 10 23 2.30923
r118 9 27 2.44077
r119 5 37 1.98872
r120 5 7 49.14
r121 3 35 49.14
.ends

.subckt PM_FULLSYSTEM%X154/15 1 2 3 7 13
c44 13 0 0.0536897f
c45 7 0 0.0228454f
c46 3 0 0.0258731f
c47 2 0 0.0588485f
r48 11 13 3.05462
r49 7 11 0.212317
r50 3 13 0.377056
r51 2 3 0.13775
r52 1 7 0.336154
.ends

.subckt PM_FULLSYSTEM%X154/16 1 3 4 5 8 11 14 16 18 22 25 26 27 28 29 32 38 45
+ 48 52 53 60
c152 60 0 0.0505372f
c153 53 0 0.00489703f
c154 52 0 0.00480895f
c155 51 0 0.00693894f
c156 48 0 0.0259818f
c157 45 0 0.00304066f
c158 38 0 0.0108581f
c159 32 0 0.035541f
c160 29 0 0.0496497f
c161 28 0 0.0559451f
c162 27 0 0.0232587f
c163 26 0 0.00944134f
c164 25 0 0.448532f
c165 22 0 0.304857f
c166 18 0 0.0889691f
c167 16 0 0.0651759f
c168 14 0 0.197712f
c169 11 0 0.0807158f
c170 8 0 0.175127f
c171 5 0 0.0130509f
c172 4 0 0.494448f
c173 1 0 0.216676f
r174 59 60 3.4687
r175 49 59 3.9
r176 48 49 89.3538
r177 46 53 0.160909
r178 46 48 0.774615
r179 45 53 0.0418175
r180 45 52 0.38
r181 40 52 0.244808
r182 39 51 0.160909
r183 38 53 0.160909
r184 38 39 0.496923
r185 34 51 0.0418175
r186 32 55 4.7687
r187 31 32 89.3538
r188 29 51 0.160909
r189 29 31 1.62231
r190 28 34 3.27385
r191 27 40 0.0542857
r192 24 25 166.14
r193 20 22 87.75
r194 19 26 0.858359
r195 18 24 4.35808
r196 18 19 29.64
r197 16 20 4.35808
r198 16 60 15.21
r199 12 26 3.30287
r200 12 14 51.48
r201 11 26 3.30287
r202 10 59 1.98872
r203 10 11 37.83
r204 8 55 49.14
r205 4 25 4.35808
r206 4 5 203.58
r207 1 5 4.35808
r208 1 3 46.8
.ends

.subckt PM_FULLSYSTEM%X155/CLK 3 7 16
c25 16 0 0.0625195f
c26 7 0 0.186041f
c27 3 0 0.253963f
r28 14 16 0.52
r29 5 16 1.98872
r30 5 7 41.34
r31 1 14 1.98872
r32 1 3 49.14
.ends

.subckt PM_FULLSYSTEM%X155/D 3 7 16
c24 16 0 0.0662874f
c25 7 0 0.212007f
c26 3 0 0.116969f
r27 5 16 1.98872
r28 5 7 60.84
r29 1 16 1.98872
r30 1 3 29.64
.ends

.subckt PM_FULLSYSTEM%X155/11 1 2
c13 1 0 0.0733249f
r14 1 2 2.67462
.ends

.subckt PM_FULLSYSTEM%X155/12 1 2 3 6 12 13
c64 13 0 0.0248816f
c65 12 0 0.0310161f
c66 6 0 0.0608478f
c67 3 0 0.0540228f
c68 1 0 0.0175376f
r69 12 13 0.447336
r70 7 12 0.156557
r71 6 8 0.212317
r72 6 7 1.92923
r73 4 13 1.63692
r74 3 8 0.833077
r75 2 12 0.239259
r76 1 4 0.0223169
.ends

.subckt PM_FULLSYSTEM%X155/13 1 4 7 8 9 13 15 17 18 19 21 22 31 32 35 38 41
c114 41 0 0.0350377f
c115 38 0 0.0084753f
c116 35 0 0.0343918f
c117 32 0 0.0240184f
c118 31 0 0.0636235f
c119 22 0 0.0472425f
c120 21 0 0.0120237f
c121 20 0 0.0154444f
c122 19 0 0.0232198f
c123 18 0 0.0538496f
c124 15 0 0.210261f
c125 13 0 0.233084f
c126 9 0 0.0513732f
c127 8 0 0.0162668f
c128 7 0 0.224613f
c129 4 0 0.386238f
c130 1 0 0.0400789f
r131 36 41 4.7687
r132 35 36 89.3538
r133 33 35 1.38846
r134 31 33 0.212317
r135 31 32 3.85846
r136 24 38 0.244808
r137 23 32 0.227973
r138 22 38 1.79769
r139 21 24 0.0542857
r140 21 23 0.352857
r141 18 19 5.57143
r142 15 17 46.8
r143 11 13 53.04
r144 10 20 3.30287
r145 9 11 4.35808
r146 9 10 10.14
r147 7 15 4.35808
r148 7 8 91.26
r149 5 20 0.858359
r150 5 18 25.74
r151 4 8 4.35808
r152 4 19 161.85
r153 1 20 3.30287
r154 1 41 13.26
.ends

.subckt PM_FULLSYSTEM%X155/14 3 7 9 10 13 14 16 19 21 22 32
c100 32 0 0.014798f
c101 22 0 0.0061064f
c102 21 0 0.074522f
c103 19 0 0.0527956f
c104 16 0 0.077237f
c105 14 0 0.0284053f
c106 13 0 0.0116753f
c107 10 0 0.0921852f
c108 9 0 0.0803251f
c109 7 0 0.189497f
c110 3 0 0.212182f
r111 31 32 0.38
r112 27 32 0.0223169
r113 23 31 0.0223169
r114 21 31 0.19
r115 21 22 3.36154
r116 19 37 2.86
r117 18 19 89.3538
r118 16 24 0.212317
r119 16 18 3.23
r120 14 35 4.7687
r121 13 14 89.3538
r122 11 22 0.212317
r123 11 13 0.774615
r124 10 24 0.906154
r125 10 23 2.30923
r126 9 27 2.44077
r127 5 37 1.98872
r128 5 7 49.14
r129 3 35 49.14
.ends

.subckt PM_FULLSYSTEM%X155/15 1 2 3 7 13
c42 13 0 0.0762379f
c43 7 0 0.0279407f
c44 3 0 0.0337511f
c45 2 0 0.0752715f
r46 11 13 3.05462
r47 7 11 0.212317
r48 3 13 0.377056
r49 2 3 0.13775
r50 1 7 0.336154
.ends

.subckt PM_FULLSYSTEM%X155/16 1 3 4 5 8 11 14 16 18 22 25 26 27 28 29 32 38 45
+ 48 51 52 53 60
c130 60 0 0.0480828f
c131 53 0 0.00322625f
c132 52 0 0.00726499f
c133 51 0 0.00693894f
c134 48 0 0.0201622f
c135 45 0 0.00598719f
c136 38 0 0.00796085f
c137 32 0 0.0327864f
c138 29 0 0.0447174f
c139 28 0 0.0999301f
c140 27 0 0.0309999f
c141 26 0 0.00944134f
c142 25 0 0.448532f
c143 22 0 0.320007f
c144 18 0 0.0937562f
c145 16 0 0.0623281f
c146 14 0 0.197712f
c147 11 0 0.0820284f
c148 8 0 0.175127f
c149 5 0 0.0130509f
c150 4 0 0.513057f
c151 1 0 0.215189f
r152 59 60 3.4687
r153 49 59 3.9
r154 48 49 89.3538
r155 46 53 0.160909
r156 46 48 0.774615
r157 45 53 0.0418175
r158 45 52 0.38
r159 40 52 0.244808
r160 39 51 0.160909
r161 38 53 0.160909
r162 38 39 0.496923
r163 34 51 0.0418175
r164 32 55 4.7687
r165 31 32 89.3538
r166 29 51 0.160909
r167 29 31 1.62231
r168 28 34 3.27385
r169 27 40 0.0542857
r170 24 25 166.14
r171 20 22 87.75
r172 19 26 0.858359
r173 18 24 4.35808
r174 18 19 29.64
r175 16 20 4.35808
r176 16 60 15.21
r177 12 26 3.30287
r178 12 14 51.48
r179 11 26 3.30287
r180 10 59 1.98872
r181 10 11 37.83
r182 8 55 49.14
r183 4 25 4.35808
r184 4 5 203.58
r185 1 5 4.35808
r186 1 3 46.8
.ends

.subckt PM_FULLSYSTEM%X156/CLK 3 7 16
c28 16 0 0.0577939f
c29 7 0 0.190169f
c30 3 0 0.251276f
r31 14 16 0.52
r32 5 16 1.98872
r33 5 7 41.34
r34 1 14 1.98872
r35 1 3 49.14
.ends

.subckt PM_FULLSYSTEM%X156/D 3 7 16
c24 16 0 0.0788527f
c25 7 0 0.212168f
c26 3 0 0.118286f
r27 5 16 1.98872
r28 5 7 60.84
r29 1 16 1.98872
r30 1 3 29.64
.ends

.subckt PM_FULLSYSTEM%X156/11 1 2
c14 1 0 0.0854401f
r15 1 2 2.67462
.ends

.subckt PM_FULLSYSTEM%X156/12 1 2 3 6 12 13
c58 13 0 0.0229685f
c59 12 0 0.0326592f
c60 6 0 0.0665076f
c61 3 0 0.0640893f
c62 1 0 0.0197742f
r63 12 13 0.447336
r64 7 12 0.156557
r65 6 8 0.212317
r66 6 7 1.92923
r67 4 13 1.63692
r68 3 8 0.833077
r69 2 12 0.239259
r70 1 4 0.0223169
.ends

.subckt PM_FULLSYSTEM%X156/13 1 4 7 8 9 13 15 17 18 19 20 21 22 31 32 35 38 41
c122 41 0 0.0351312f
c123 38 0 0.0122682f
c124 35 0 0.0368506f
c125 32 0 0.0250011f
c126 31 0 0.0779884f
c127 22 0 0.0428563f
c128 21 0 0.0120237f
c129 20 0 0.0150917f
c130 19 0 0.0221326f
c131 18 0 0.0507956f
c132 15 0 0.211747f
c133 13 0 0.225979f
c134 9 0 0.0475322f
c135 8 0 0.0241078f
c136 7 0 0.284265f
c137 4 0 0.366795f
c138 1 0 0.0348877f
r139 36 41 4.7687
r140 35 36 89.3538
r141 33 35 1.38846
r142 31 33 0.212317
r143 31 32 3.85846
r144 24 38 0.244808
r145 23 32 0.227973
r146 22 38 1.79769
r147 21 24 0.0542857
r148 21 23 0.352857
r149 18 19 5.57143
r150 15 17 46.8
r151 11 13 53.04
r152 10 20 3.30287
r153 9 11 4.35808
r154 9 10 10.14
r155 7 15 4.35808
r156 7 8 91.26
r157 5 20 0.858359
r158 5 18 25.74
r159 4 8 4.35808
r160 4 19 161.85
r161 1 20 3.30287
r162 1 41 13.26
.ends

.subckt PM_FULLSYSTEM%X156/14 3 7 9 10 13 14 16 19 21 22 32
c103 32 0 0.014798f
c104 22 0 0.0061064f
c105 21 0 0.0739164f
c106 19 0 0.0527956f
c107 16 0 0.0777393f
c108 14 0 0.0295924f
c109 13 0 0.0116204f
c110 10 0 0.0545895f
c111 9 0 0.064193f
c112 7 0 0.189329f
c113 3 0 0.207786f
r114 31 32 0.38
r115 27 32 0.0223169
r116 23 31 0.0223169
r117 21 31 0.19
r118 21 22 3.36154
r119 19 37 2.86
r120 18 19 89.3538
r121 16 24 0.212317
r122 16 18 3.23
r123 14 35 4.7687
r124 13 14 89.3538
r125 11 22 0.212317
r126 11 13 0.774615
r127 10 24 0.906154
r128 10 23 2.30923
r129 9 27 2.44077
r130 5 37 1.98872
r131 5 7 49.14
r132 3 35 49.14
.ends

.subckt PM_FULLSYSTEM%X156/15 1 2 3 7 13
c44 13 0 0.0498915f
c45 7 0 0.0190662f
c46 3 0 0.0268116f
c47 2 0 0.0588485f
r48 11 13 3.05462
r49 7 11 0.212317
r50 3 13 0.377056
r51 2 3 0.13775
r52 1 7 0.336154
.ends

.subckt PM_FULLSYSTEM%X156/16 1 3 4 5 8 11 14 16 18 22 25 26 27 28 29 32 38 45
+ 48 52 53 60
c136 60 0 0.0505372f
c137 53 0 0.00743256f
c138 52 0 0.00487069f
c139 51 0 0.00693894f
c140 48 0 0.0238854f
c141 45 0 0.00369614f
c142 38 0 0.0105506f
c143 32 0 0.035541f
c144 29 0 0.0527483f
c145 28 0 0.0648452f
c146 27 0 0.0246788f
c147 26 0 0.00836973f
c148 25 0 0.454313f
c149 22 0 0.307717f
c150 18 0 0.0937562f
c151 16 0 0.0661503f
c152 14 0 0.188811f
c153 11 0 0.0803226f
c154 8 0 0.17189f
c155 5 0 0.0206249f
c156 4 0 0.574913f
c157 1 0 0.216676f
r158 59 60 3.4687
r159 49 59 3.9
r160 48 49 89.3538
r161 46 53 0.160909
r162 46 48 0.774615
r163 45 53 0.0418175
r164 45 52 0.38
r165 40 52 0.244808
r166 39 51 0.160909
r167 38 53 0.160909
r168 38 39 0.496923
r169 34 51 0.0418175
r170 32 55 4.7687
r171 31 32 89.3538
r172 29 51 0.160909
r173 29 31 1.62231
r174 28 34 3.27385
r175 27 40 0.0542857
r176 24 25 166.14
r177 20 22 87.75
r178 19 26 0.858359
r179 18 24 4.35808
r180 18 19 29.64
r181 16 20 4.35808
r182 16 60 15.21
r183 12 26 3.30287
r184 12 14 51.48
r185 11 26 3.30287
r186 10 59 1.98872
r187 10 11 37.83
r188 8 55 49.14
r189 4 25 4.35808
r190 4 5 203.58
r191 1 5 4.35808
r192 1 3 46.8
.ends

.subckt PM_FULLSYSTEM%X157/CLK 3 7 16
c29 16 0 0.0558432f
c30 7 0 0.181652f
c31 3 0 0.225174f
r32 14 16 0.52
r33 5 16 1.98872
r34 5 7 41.34
r35 1 14 1.98872
r36 1 3 49.14
.ends

.subckt PM_FULLSYSTEM%X157/D 3 7 16
c25 16 0 0.0719318f
c26 7 0 0.212007f
c27 3 0 0.118286f
r28 5 16 1.98872
r29 5 7 60.84
r30 1 16 1.98872
r31 1 3 29.64
.ends

.subckt PM_FULLSYSTEM%X157/11 1 2
c12 1 0 0.0766815f
r13 1 2 2.67462
.ends

.subckt PM_FULLSYSTEM%X157/12 1 2 3 6 12 13
c52 13 0 0.032f
c53 12 0 0.0331299f
c54 6 0 0.063688f
c55 3 0 0.0540395f
c56 1 0 0.0197742f
r57 12 13 0.447336
r58 7 12 0.156557
r59 6 8 0.212317
r60 6 7 1.92923
r61 4 13 1.63692
r62 3 8 0.833077
r63 2 12 0.239259
r64 1 4 0.0223169
.ends

.subckt PM_FULLSYSTEM%X157/13 1 4 7 8 9 13 15 17 18 19 21 22 31 32 35 38 41
c102 41 0 0.0358147f
c103 38 0 0.0122682f
c104 35 0 0.0334784f
c105 32 0 0.024819f
c106 31 0 0.0818919f
c107 22 0 0.050654f
c108 21 0 0.0120237f
c109 20 0 0.0154444f
c110 19 0 0.0232198f
c111 18 0 0.0538496f
c112 15 0 0.211747f
c113 13 0 0.236958f
c114 9 0 0.0513732f
c115 8 0 0.0150633f
c116 7 0 0.204799f
c117 4 0 0.382197f
c118 1 0 0.0400789f
r119 36 41 4.7687
r120 35 36 89.3538
r121 33 35 1.38846
r122 31 33 0.212317
r123 31 32 3.85846
r124 24 38 0.244808
r125 23 32 0.227973
r126 22 38 1.79769
r127 21 24 0.0542857
r128 21 23 0.352857
r129 18 19 5.57143
r130 15 17 46.8
r131 11 13 53.04
r132 10 20 3.30287
r133 9 11 4.35808
r134 9 10 10.14
r135 7 15 4.35808
r136 7 8 91.26
r137 5 20 0.858359
r138 5 18 25.74
r139 4 8 4.35808
r140 4 19 161.85
r141 1 20 3.30287
r142 1 41 13.26
.ends

.subckt PM_FULLSYSTEM%X157/14 3 7 9 10 13 14 16 19 21 22 32
c83 32 0 0.014798f
c84 22 0 0.0061064f
c85 21 0 0.0955198f
c86 19 0 0.0527956f
c87 16 0 0.0827541f
c88 14 0 0.0295924f
c89 13 0 0.0126979f
c90 10 0 0.0921852f
c91 9 0 0.110573f
c92 7 0 0.189497f
c93 3 0 0.221655f
r94 31 32 0.38
r95 27 32 0.0223169
r96 23 31 0.0223169
r97 21 31 0.19
r98 21 22 3.36154
r99 19 37 2.86
r100 18 19 89.3538
r101 16 24 0.212317
r102 16 18 3.23
r103 14 35 4.7687
r104 13 14 89.3538
r105 11 22 0.212317
r106 11 13 0.774615
r107 10 24 0.906154
r108 10 23 2.30923
r109 9 27 2.44077
r110 5 37 1.98872
r111 5 7 49.14
r112 3 35 49.14
.ends

.subckt PM_FULLSYSTEM%X157/15 1 2 3 7 13
c39 13 0 0.0791242f
c40 7 0 0.0350744f
c41 3 0 0.0401071f
c42 2 0 0.0760661f
r43 11 13 3.05462
r44 7 11 0.212317
r45 3 13 0.377056
r46 2 3 0.13775
r47 1 7 0.336154
.ends

.subckt PM_FULLSYSTEM%X157/16 1 3 4 5 8 11 14 16 18 22 25 26 27 28 29 32 38 45
+ 48 52 53 60
c105 60 0 0.0505372f
c106 53 0 0.00743256f
c107 52 0 0.00726499f
c108 51 0 0.00693894f
c109 48 0 0.0267313f
c110 45 0 0.00598719f
c111 38 0 0.0108581f
c112 32 0 0.035541f
c113 29 0 0.0540873f
c114 28 0 0.103912f
c115 27 0 0.0335311f
c116 26 0 0.00944134f
c117 25 0 0.454313f
c118 22 0 0.320963f
c119 18 0 0.0937562f
c120 16 0 0.0660904f
c121 14 0 0.200915f
c122 11 0 0.0838301f
c123 8 0 0.175127f
c124 5 0 0.0130509f
c125 4 0 0.507661f
c126 1 0 0.216676f
r127 59 60 3.4687
r128 49 59 3.9
r129 48 49 89.3538
r130 46 53 0.160909
r131 46 48 0.774615
r132 45 53 0.0418175
r133 45 52 0.38
r134 40 52 0.244808
r135 39 51 0.160909
r136 38 53 0.160909
r137 38 39 0.496923
r138 34 51 0.0418175
r139 32 55 4.7687
r140 31 32 89.3538
r141 29 51 0.160909
r142 29 31 1.62231
r143 28 34 3.27385
r144 27 40 0.0542857
r145 24 25 166.14
r146 20 22 87.75
r147 19 26 0.858359
r148 18 24 4.35808
r149 18 19 29.64
r150 16 20 4.35808
r151 16 60 15.21
r152 12 26 3.30287
r153 12 14 51.48
r154 11 26 3.30287
r155 10 59 1.98872
r156 10 11 37.83
r157 8 55 49.14
r158 4 25 4.35808
r159 4 5 203.58
r160 1 5 4.35808
r161 1 3 46.8
.ends

.subckt PM_FULLSYSTEM%X158/CLK 3 7 16
c24 16 0 0.06254f
c25 7 0 0.190169f
c26 3 0 0.253963f
r27 14 16 0.52
r28 5 16 1.98872
r29 5 7 41.34
r30 1 14 1.98872
r31 1 3 49.14
.ends

.subckt PM_FULLSYSTEM%X158/D 3 7 16
c25 16 0 0.0676606f
c26 7 0 0.212007f
c27 3 0 0.113984f
r28 5 16 1.98872
r29 5 7 60.84
r30 1 16 1.98872
r31 1 3 29.64
.ends

.subckt PM_FULLSYSTEM%X158/11 1 2
c14 1 0 0.081287f
r15 1 2 2.67462
.ends

.subckt PM_FULLSYSTEM%X158/12 1 2 3 6 12 13
c51 13 0 0.0318318f
c52 12 0 0.0332675f
c53 6 0 0.0638996f
c54 3 0 0.0542292f
c55 1 0 0.0197742f
r56 12 13 0.447336
r57 7 12 0.156557
r58 6 8 0.212317
r59 6 7 1.92923
r60 4 13 1.63692
r61 3 8 0.833077
r62 2 12 0.239259
r63 1 4 0.0223169
.ends

.subckt PM_FULLSYSTEM%X158/13 1 4 7 8 9 13 15 17 18 19 21 22 31 32 35 38 41
c100 41 0 0.0358147f
c101 38 0 0.0122682f
c102 35 0 0.0334784f
c103 32 0 0.0217277f
c104 31 0 0.0730786f
c105 22 0 0.050654f
c106 21 0 0.0120237f
c107 20 0 0.0154444f
c108 19 0 0.0232198f
c109 18 0 0.0538496f
c110 15 0 0.211747f
c111 13 0 0.234877f
c112 9 0 0.0513732f
c113 8 0 0.0277527f
c114 7 0 0.286366f
c115 4 0 0.388196f
c116 1 0 0.0400789f
r117 36 41 4.7687
r118 35 36 89.3538
r119 33 35 1.38846
r120 31 33 0.212317
r121 31 32 3.85846
r122 24 38 0.244808
r123 23 32 0.227973
r124 22 38 1.79769
r125 21 24 0.0542857
r126 21 23 0.352857
r127 18 19 5.57143
r128 15 17 46.8
r129 11 13 53.04
r130 10 20 3.30287
r131 9 11 4.35808
r132 9 10 10.14
r133 7 15 4.35808
r134 7 8 91.26
r135 5 20 0.858359
r136 5 18 25.74
r137 4 8 4.35808
r138 4 19 161.85
r139 1 20 3.30287
r140 1 41 13.26
.ends

.subckt PM_FULLSYSTEM%X158/14 3 7 9 10 13 14 16 19 21 22 32
c89 32 0 0.014798f
c90 22 0 0.0061064f
c91 21 0 0.0793175f
c92 19 0 0.0527956f
c93 16 0 0.0897032f
c94 14 0 0.0295924f
c95 13 0 0.0123579f
c96 10 0 0.0921852f
c97 9 0 0.105757f
c98 7 0 0.189329f
c99 3 0 0.219575f
r100 31 32 0.38
r101 27 32 0.0223169
r102 23 31 0.0223169
r103 21 31 0.19
r104 21 22 3.36154
r105 19 37 2.86
r106 18 19 89.3538
r107 16 24 0.212317
r108 16 18 3.23
r109 14 35 4.7687
r110 13 14 89.3538
r111 11 22 0.212317
r112 11 13 0.774615
r113 10 24 0.906154
r114 10 23 2.30923
r115 9 27 2.44077
r116 5 37 1.98872
r117 5 7 49.14
r118 3 35 49.14
.ends

.subckt PM_FULLSYSTEM%X158/15 1 2 3 7 13
c41 13 0 0.0495551f
c42 7 0 0.0295726f
c43 3 0 0.0273798f
c44 2 0 0.0588485f
r45 11 13 3.05462
r46 7 11 0.212317
r47 3 13 0.377056
r48 2 3 0.13775
r49 1 7 0.336154
.ends

.subckt PM_FULLSYSTEM%X158/16 1 3 4 5 8 11 14 16 18 22 25 26 27 28 29 32 38 45
+ 48 52 53 60
c111 60 0 0.0505372f
c112 53 0 0.00743256f
c113 52 0 0.00726499f
c114 51 0 0.00693894f
c115 48 0 0.0248836f
c116 45 0 0.00598719f
c117 38 0 0.0105903f
c118 32 0 0.035541f
c119 29 0 0.0527483f
c120 28 0 0.084313f
c121 27 0 0.029012f
c122 26 0 0.00944134f
c123 25 0 0.454313f
c124 22 0 0.29709f
c125 18 0 0.0937562f
c126 16 0 0.0660781f
c127 14 0 0.200915f
c128 11 0 0.0838301f
c129 8 0 0.174275f
c130 5 0 0.0206249f
c131 4 0 0.644535f
c132 1 0 0.216676f
r133 59 60 3.4687
r134 49 59 3.9
r135 48 49 89.3538
r136 46 53 0.160909
r137 46 48 0.774615
r138 45 53 0.0418175
r139 45 52 0.38
r140 40 52 0.244808
r141 39 51 0.160909
r142 38 53 0.160909
r143 38 39 0.496923
r144 34 51 0.0418175
r145 32 55 4.7687
r146 31 32 89.3538
r147 29 51 0.160909
r148 29 31 1.62231
r149 28 34 3.27385
r150 27 40 0.0542857
r151 24 25 166.14
r152 20 22 87.75
r153 19 26 0.858359
r154 18 24 4.35808
r155 18 19 29.64
r156 16 20 4.35808
r157 16 60 15.21
r158 12 26 3.30287
r159 12 14 51.48
r160 11 26 3.30287
r161 10 59 1.98872
r162 10 11 37.83
r163 8 55 49.14
r164 4 25 4.35808
r165 4 5 203.58
r166 1 5 4.35808
r167 1 3 46.8
.ends

.subckt PM_FULLSYSTEM%X159/CLK 3 7 16
c23 16 0 0.0616089f
c24 7 0 0.190294f
c25 3 0 0.253963f
r26 14 16 0.52
r27 5 16 1.98872
r28 5 7 41.34
r29 1 14 1.98872
r30 1 3 49.14
.ends

.subckt PM_FULLSYSTEM%X159/D 3 7 16
c21 16 0 0.0720548f
c22 7 0 0.212007f
c23 3 0 0.118286f
r24 5 16 1.98872
r25 5 7 60.84
r26 1 16 1.98872
r27 1 3 29.64
.ends

.subckt PM_FULLSYSTEM%X159/11 1 2
c11 1 0 0.0766815f
r12 1 2 2.67462
.ends

.subckt PM_FULLSYSTEM%X159/12 1 2 3 6 12 13
c63 13 0 0.0155823f
c64 12 0 0.0210661f
c65 6 0 0.0641296f
c66 3 0 0.0638787f
c67 1 0 0.014287f
r68 12 13 0.447336
r69 7 12 0.156557
r70 6 8 0.212317
r71 6 7 1.92923
r72 4 13 1.63692
r73 3 8 0.833077
r74 2 12 0.239259
r75 1 4 0.0223169
.ends

.subckt PM_FULLSYSTEM%X159/13 1 4 7 8 9 13 15 17 18 19 21 22 31 32 35 38 41
c105 41 0 0.0358147f
c106 38 0 0.0122682f
c107 35 0 0.0286975f
c108 32 0 0.0241829f
c109 31 0 0.0693167f
c110 22 0 0.040457f
c111 21 0 0.0120237f
c112 20 0 0.0154444f
c113 19 0 0.0232198f
c114 18 0 0.0538496f
c115 15 0 0.210261f
c116 13 0 0.236958f
c117 9 0 0.0513732f
c118 8 0 0.0162668f
c119 7 0 0.224613f
c120 4 0 0.386238f
c121 1 0 0.0400789f
r122 36 41 4.7687
r123 35 36 89.3538
r124 33 35 1.38846
r125 31 33 0.212317
r126 31 32 3.85846
r127 24 38 0.244808
r128 23 32 0.227973
r129 22 38 1.79769
r130 21 24 0.0542857
r131 21 23 0.352857
r132 18 19 5.57143
r133 15 17 46.8
r134 11 13 53.04
r135 10 20 3.30287
r136 9 11 4.35808
r137 9 10 10.14
r138 7 15 4.35808
r139 7 8 91.26
r140 5 20 0.858359
r141 5 18 25.74
r142 4 8 4.35808
r143 4 19 161.85
r144 1 20 3.30287
r145 1 41 13.26
.ends

.subckt PM_FULLSYSTEM%X159/14 3 7 9 10 13 14 16 19 21 22 32
c96 32 0 0.014798f
c97 22 0 0.0060341f
c98 21 0 0.0957292f
c99 19 0 0.0459684f
c100 16 0 0.0849046f
c101 14 0 0.027993f
c102 13 0 0.0106365f
c103 10 0 0.0618088f
c104 9 0 0.0703448f
c105 7 0 0.177684f
c106 3 0 0.192207f
r107 31 32 0.38
r108 27 32 0.0223169
r109 23 31 0.0223169
r110 21 31 0.19
r111 21 22 3.36154
r112 19 37 2.86
r113 18 19 89.3538
r114 16 24 0.212317
r115 16 18 3.23
r116 14 35 4.7687
r117 13 14 89.3538
r118 11 22 0.212317
r119 11 13 0.774615
r120 10 24 0.906154
r121 10 23 2.30923
r122 9 27 2.44077
r123 5 37 1.98872
r124 5 7 49.14
r125 3 35 49.14
.ends

.subckt PM_FULLSYSTEM%X159/15 1 2 3 7 13
c39 13 0 0.0791242f
c40 7 0 0.0350744f
c41 3 0 0.0401071f
c42 2 0 0.0752715f
r43 11 13 3.05462
r44 7 11 0.212317
r45 3 13 0.377056
r46 2 3 0.13775
r47 1 7 0.336154
.ends

.subckt PM_FULLSYSTEM%X159/16 1 3 4 5 8 11 14 16 18 22 25 26 27 28 29 32 38 45
+ 48 52 53 60
c103 60 0 0.0505372f
c104 53 0 0.00743256f
c105 52 0 0.00726499f
c106 51 0 0.00693894f
c107 48 0 0.0267313f
c108 45 0 0.00598719f
c109 38 0 0.0108581f
c110 32 0 0.035541f
c111 29 0 0.0540873f
c112 28 0 0.103659f
c113 27 0 0.0335311f
c114 26 0 0.00944134f
c115 25 0 0.454313f
c116 22 0 0.320963f
c117 18 0 0.0937562f
c118 16 0 0.0660904f
c119 14 0 0.200915f
c120 11 0 0.0838301f
c121 8 0 0.175127f
c122 5 0 0.0130509f
c123 4 0 0.509066f
c124 1 0 0.215189f
r125 59 60 3.4687
r126 49 59 3.9
r127 48 49 89.3538
r128 46 53 0.160909
r129 46 48 0.774615
r130 45 53 0.0418175
r131 45 52 0.38
r132 40 52 0.244808
r133 39 51 0.160909
r134 38 53 0.160909
r135 38 39 0.496923
r136 34 51 0.0418175
r137 32 55 4.7687
r138 31 32 89.3538
r139 29 51 0.160909
r140 29 31 1.62231
r141 28 34 3.27385
r142 27 40 0.0542857
r143 24 25 166.14
r144 20 22 87.75
r145 19 26 0.858359
r146 18 24 4.35808
r147 18 19 29.64
r148 16 20 4.35808
r149 16 60 15.21
r150 12 26 3.30287
r151 12 14 51.48
r152 11 26 3.30287
r153 10 59 1.98872
r154 10 11 37.83
r155 8 55 49.14
r156 4 25 4.35808
r157 4 5 203.58
r158 1 5 4.35808
r159 1 3 46.8
.ends

.subckt PM_FULLSYSTEM%X160/CLK 3 7 16
c31 16 0 0.0633395f
c32 7 0 0.180276f
c33 3 0 0.253963f
r34 14 16 0.52
r35 5 16 1.98872
r36 5 7 41.34
r37 1 14 1.98872
r38 1 3 49.14
.ends

.subckt PM_FULLSYSTEM%X160/D 3 7 16
c24 16 0 0.0659571f
c25 7 0 0.212007f
c26 3 0 0.117012f
r27 5 16 1.98872
r28 5 7 60.84
r29 1 16 1.98872
r30 1 3 29.64
.ends

.subckt PM_FULLSYSTEM%X160/11 1 2
c14 1 0 0.0728251f
r15 1 2 2.67462
.ends

.subckt PM_FULLSYSTEM%X160/12 1 2 3 6 12 13
c54 13 0 0.0318318f
c55 12 0 0.0332487f
c56 6 0 0.0635786f
c57 3 0 0.054081f
c58 1 0 0.0197742f
r59 12 13 0.447336
r60 7 12 0.156557
r61 6 8 0.212317
r62 6 7 1.92923
r63 4 13 1.63692
r64 3 8 0.833077
r65 2 12 0.239259
r66 1 4 0.0223169
.ends

.subckt PM_FULLSYSTEM%X160/13 1 4 7 8 9 13 15 17 18 19 21 22 31 32 35 38 41
c104 41 0 0.0358147f
c105 38 0 0.0122682f
c106 35 0 0.0356104f
c107 32 0 0.0224116f
c108 31 0 0.0674052f
c109 22 0 0.050654f
c110 21 0 0.0133733f
c111 20 0 0.0154444f
c112 19 0 0.0232198f
c113 18 0 0.0538496f
c114 15 0 0.211747f
c115 13 0 0.232796f
c116 9 0 0.0513732f
c117 8 0 0.0277527f
c118 7 0 0.286366f
c119 4 0 0.388196f
c120 1 0 0.0400789f
r121 36 41 4.7687
r122 35 36 89.3538
r123 33 35 1.38846
r124 31 33 0.212317
r125 31 32 3.85846
r126 24 38 0.244808
r127 23 32 0.227973
r128 22 38 1.79769
r129 21 24 0.0542857
r130 21 23 0.352857
r131 18 19 5.57143
r132 15 17 46.8
r133 11 13 53.04
r134 10 20 3.30287
r135 9 11 4.35808
r136 9 10 10.14
r137 7 15 4.35808
r138 7 8 91.26
r139 5 20 0.858359
r140 5 18 25.74
r141 4 8 4.35808
r142 4 19 161.85
r143 1 20 3.30287
r144 1 41 13.26
.ends

.subckt PM_FULLSYSTEM%X160/14 3 7 9 10 13 14 16 19 21 22 32
c91 32 0 0.014798f
c92 22 0 0.0061064f
c93 21 0 0.077647f
c94 19 0 0.0527956f
c95 16 0 0.0859064f
c96 14 0 0.0295924f
c97 13 0 0.0123326f
c98 10 0 0.0921852f
c99 9 0 0.107401f
c100 7 0 0.189329f
c101 3 0 0.219872f
r102 31 32 0.38
r103 27 32 0.0223169
r104 23 31 0.0223169
r105 21 31 0.19
r106 21 22 3.36154
r107 19 37 2.86
r108 18 19 89.3538
r109 16 24 0.212317
r110 16 18 3.23
r111 14 35 4.7687
r112 13 14 89.3538
r113 11 22 0.212317
r114 11 13 0.774615
r115 10 24 0.906154
r116 10 23 2.30923
r117 9 27 2.44077
r118 5 37 1.98872
r119 5 7 49.14
r120 3 35 49.14
.ends

.subckt PM_FULLSYSTEM%X160/15 1 2 3 7 13
c41 13 0 0.0798006f
c42 7 0 0.0190662f
c43 3 0 0.0342695f
c44 2 0 0.0760801f
r45 11 13 3.05462
r46 7 11 0.212317
r47 3 13 0.377056
r48 2 3 0.13775
r49 1 7 0.336154
.ends

.subckt PM_FULLSYSTEM%X160/16 1 3 4 5 8 11 14 16 18 22 25 26 27 28 29 32 38 45
+ 48 52 53 60
c110 60 0 0.0505372f
c111 53 0 0.00743256f
c112 52 0 0.00481805f
c113 51 0 0.00693894f
c114 48 0 0.0248836f
c115 45 0 0.00466325f
c116 38 0 0.0105506f
c117 32 0 0.035541f
c118 29 0 0.0543453f
c119 28 0 0.108368f
c120 27 0 0.022592f
c121 26 0 0.00944134f
c122 25 0 0.454313f
c123 22 0 0.31574f
c124 18 0 0.0937562f
c125 16 0 0.0661503f
c126 14 0 0.200915f
c127 11 0 0.0838301f
c128 8 0 0.172742f
c129 5 0 0.0206249f
c130 4 0 0.631655f
c131 1 0 0.216676f
r132 59 60 3.4687
r133 49 59 3.9
r134 48 49 89.3538
r135 46 53 0.160909
r136 46 48 0.774615
r137 45 53 0.0418175
r138 45 52 0.38
r139 40 52 0.244808
r140 39 51 0.160909
r141 38 53 0.160909
r142 38 39 0.496923
r143 34 51 0.0418175
r144 32 55 4.7687
r145 31 32 89.3538
r146 29 51 0.160909
r147 29 31 1.62231
r148 28 34 3.27385
r149 27 40 0.0542857
r150 24 25 166.14
r151 20 22 87.75
r152 19 26 0.858359
r153 18 24 4.35808
r154 18 19 29.64
r155 16 20 4.35808
r156 16 60 15.21
r157 12 26 3.30287
r158 12 14 51.48
r159 11 26 3.30287
r160 10 59 1.98872
r161 10 11 37.83
r162 8 55 49.14
r163 4 25 4.35808
r164 4 5 203.58
r165 1 5 4.35808
r166 1 3 46.8
.ends

.subckt PM_FULLSYSTEM%X163/A 3 7 16
c12 16 0 0.129977f
c13 7 0 0.65602f
c14 3 0 0.1765f
r15 5 16 1.98872
r16 5 7 147.81
r17 1 16 1.98872
r18 1 3 33.54
.ends

.subckt PM_FULLSYSTEM%X164/A 3 7 16
c11 16 0 5.82556f
c12 7 0 0.721233f
c13 3 0 0.175296f
r14 5 16 1.98872
r15 5 7 147.81
r16 1 16 1.98872
r17 1 3 33.54
.ends

.subckt PM_FULLSYSTEM%X165/A 3 7 16
c18 16 0 0.105152f
c19 7 0 0.630478f
c20 3 0 0.186013f
r21 5 16 1.98872
r22 5 7 147.81
r23 1 16 1.98872
r24 1 3 33.54
.ends

.subckt PM_FULLSYSTEM%X166/A 3 7 16
c13 16 0 8.99854f
c14 7 0 0.666445f
c15 3 0 0.197931f
r16 5 16 1.98872
r17 5 7 147.81
r18 1 16 1.98872
r19 1 3 33.54
.ends

.subckt PM_FULLSYSTEM%1 2 6 8 473 475 479 481 485 487 491 493 495 496 497 498
+ 500 501 509 514 516 518 519 523 524 532 533 536 537 541 542 544 546 550 551
+ 566 568 572 586 589 591 592 601 602 603 604 606 608 611 612 623 625 629 631