
** Library name: freepdk45_cells
** Cell name: XOR2X1
** View name: schematic
.subckt XOR2X1 a b y gnd vdd
