
** Library name: fullsystem
** Cell name: INVX4
** View name: schematic
.subckt INVX4 a y
