
** Library name: fullsystem
** Cell name: INVX1
** View name: schematic
.subckt INVX1 a y
