
** Library name: freepdk45_cells
** Cell name: INVX1
** View name: schematic
.subckt INVX1 a y gnd vdd
