* File: /media/ntfsdrive1/workspace/synchronizerchip/runset_pex/fullsystem_extracted.sp.pex
* Created: Wed Dec  9 13:59:48 2015
* Program "Calibre xRC"
* Version "v2013.3_28.19"
* Nominal Temperature: 27C
* Circuit Temperature: 27C
* 
.subckt PM_FULLSYSTEM%X203/9 3 5 9 11 16 17 18 20 23 25 30 32 33 37 42 43 44 45
+ 51 54 56 57 58 65 66 75 76 80
c172 80 0 0.0361355f
c173 76 0 0.061599f
c174 75 0 0.0631668f
c175 66 0 0.049031f
c176 65 0 0.0180359f
c177 58 0 0.0168979f
c178 57 0 0.00964364f
c179 56 0 0.00734456f
c180 54 0 0.0298543f
c181 51 0 0.0195487f
c182 45 0 0.00857777f
c183 44 0 0.0162056f
c184 43 0 0.014596f
c185 42 0 0.0221968f
c186 37 0 0.00960959f
c187 33 0 0.0966025f
c188 32 0 0.0135852f
c189 30 0 0.0540436f
c190 25 0 0.0556987f
c191 23 0 0.14427f
c192 20 0 0.0684102f
c193 18 0 0.0125502f
c194 17 0 0.0894008f
c195 16 0 0.178947f
c196 11 0 0.499748f
c197 9 0 0.214716f
c198 5 0 0.0424759f
c199 3 0 0.225114f
r200 75 76 89.3538
r201 72 75 6.5
r202 69 76 20.48
r203 65 69 2.92857
r204 65 66 20.48
r205 62 80 4.7687
r206 61 62 89.3538
r207 58 61 0.204615
r208 56 66 0.68963
r209 56 57 0.292522
r210 52 54 0.76
r211 50 76 0.738889
r212 50 51 0.292522
r213 44 58 0.0223169
r214 44 45 0.555385
r215 42 46 0.212317
r216 42 43 0.526154
r217 39 54 0.0223169
r218 38 45 0.212317
r219 37 43 0.212317
r220 37 51 0.38
r221 34 52 0.0223169
r222 34 57 1.18385
r223 33 46 0.833077
r224 32 39 0.0146154
r225 32 38 0.833077
r226 28 30 10.14
r227 25 27 11.7
r228 21 30 0.458085
r229 21 23 44.85
r230 20 28 0.458085
r231 19 20 31.2
r232 17 19 4.35808
r233 17 18 22.62
r234 14 18 4.35808
r235 14 16 27.3
r236 13 16 62.4
r237 12 25 0.458085
r238 11 13 4.35808
r239 11 12 182.52
r240 7 27 3.9
r241 7 9 67.08
r242 5 27 0.458085
r243 5 80 13.26
r244 1 72 1.98872
r245 1 3 80.34
.ends

.subckt PM_FULLSYSTEM%X203/10 3 5 9 11 15 17 21 23 24 30 35 37 40 43 45 46 49 50
+ 51 54 57 62 63 66 67 69 72 73 77 81 82 97 99 103
c259 103 0 0.0536174f
c260 99 0 0.0457357f
c261 97 0 0.0669993f
c262 82 0 0.0514276f
c263 81 0 0.220065f
c264 77 0 0.0640363f
c265 75 0 0.0177356f
c266 73 0 0.0352051f
c267 72 0 0.0501819f
c268 69 0 0.00508273f
c269 67 0 0.00778646f
c270 66 0 0.0435608f
c271 63 0 0.0618793f
c272 62 0 0.00755882f
c273 58 0 0.0144952f
c274 57 0 0.0099211f
c275 54 0 0.0115215f
c276 51 0 0.0119136f
c277 50 0 0.0188744f
c278 49 0 0.032962f
c279 46 0 0.103628f
c280 45 0 0.0262637f
c281 43 0 0.0211896f
c282 40 0 0.0510659f
c283 37 0 0.0953919f
c284 35 0 0.158476f
c285 30 0 0.116955f
c286 24 0 0.0576164f
c287 23 0 0.0681406f
c288 21 0 0.231569f
c289 17 0 0.0798617f
c290 15 0 0.106126f
c291 9 0 0.522173f
c292 3 0 0.29278f
r293 96 99 3.38
r294 96 97 89.3538
r295 86 97 1.50538
r296 85 86 20.48
r297 81 85 2.9375
r298 81 82 25.6
r299 77 78 34.1333
r300 75 77 0.189815
r301 72 73 102.4
r302 70 75 0.158772
r303 70 72 0.9375
r304 68 82 2.41154
r305 68 69 0.0418175
r306 66 78 0.302593
r307 66 67 0.11094
r308 64 73 0.862308
r309 63 91 5.46
r310 62 64 0.0223169
r311 62 63 89.3538
r312 59 62 0.204615
r313 55 103 4.7687
r314 54 55 89.3538
r315 52 69 0.160909
r316 52 54 0.453077
r317 50 69 0.160909
r318 50 51 1.46154
r319 48 51 0.212317
r320 48 49 2.00231
r321 47 67 0.11094
r322 46 49 0.212317
r323 46 47 3.88769
r324 45 67 0.0912879
r325 44 45 1.81231
r326 42 59 0.0223169
r327 42 43 1.88538
r328 40 90 4.7687
r329 39 40 89.3538
r330 37 44 0.212317
r331 37 39 3.31769
r332 36 58 0.0418175
r333 35 43 0.212317
r334 35 36 4.94
r335 30 58 0.160909
r336 30 57 2.93769
r337 25 57 0.192522
r338 24 58 0.160909
r339 23 25 0.176429
r340 19 21 68.25
r341 17 19 4.35808
r342 17 103 17.16
r343 13 99 1.98872
r344 13 15 29.64
r345 9 11 114.27
r346 7 91 1.98872
r347 7 9 29.64
r348 3 5 60.84
r349 3 90 29.64
.ends

.subckt PM_FULLSYSTEM%X203/11 1 2
c16 1 0 0.0771986f
r17 1 2 2.67462
.ends

.subckt PM_FULLSYSTEM%X203/12 1 2 3 6 12 13
c55 13 0 0.0251952f
c56 12 0 0.0296162f
c57 6 0 0.0627635f
c58 3 0 0.0518753f
c59 1 0 0.01756f
r60 12 13 0.447336
r61 7 12 0.156557
r62 6 8 0.212317
r63 6 7 1.92923
r64 4 13 1.63692
r65 3 8 0.833077
r66 2 12 0.239259
r67 1 4 0.0223169
.ends

.subckt PM_FULLSYSTEM%X203/13 1 4 7 8 9 13 15 17 18 19 20 21 22 31 32 35 38 41
c112 41 0 0.0346379f
c113 38 0 0.0109937f
c114 35 0 0.0279232f
c115 32 0 0.0199943f
c116 31 0 0.0782648f
c117 22 0 0.0528609f
c118 21 0 0.0120237f
c119 20 0 0.0154444f
c120 19 0 0.0232198f
c121 18 0 0.0517604f
c122 15 0 0.211747f
c123 13 0 0.236958f
c124 9 0 0.0449723f
c125 8 0 0.0277527f
c126 7 0 0.257701f
c127 4 0 0.388196f
c128 1 0 0.0370547f
r129 36 41 4.7687
r130 35 36 89.3538
r131 33 35 1.38846
r132 31 33 0.212317
r133 31 32 3.85846
r134 24 38 0.244808
r135 23 32 0.227973
r136 22 38 1.79769
r137 21 24 0.0542857
r138 21 23 0.352857
r139 18 19 5.57143
r140 15 17 46.8
r141 11 13 53.04
r142 10 20 3.30287
r143 9 11 4.35808
r144 9 10 10.14
r145 7 15 4.35808
r146 7 8 91.26
r147 5 20 0.858359
r148 5 18 25.74
r149 4 8 4.35808
r150 4 19 161.85
r151 1 20 3.30287
r152 1 41 13.26
.ends

.subckt PM_FULLSYSTEM%X203/14 3 7 9 10 13 14 16 19 21 22 32
c90 32 0 0.014798f
c91 22 0 0.00575901f
c92 21 0 0.0760473f
c93 19 0 0.0527956f
c94 16 0 0.0814632f
c95 14 0 0.0280931f
c96 13 0 0.0110236f
c97 10 0 0.0921345f
c98 9 0 0.107864f
c99 7 0 0.189329f
c100 3 0 0.221655f
r101 31 32 0.38
r102 27 32 0.0223169
r103 23 31 0.0223169
r104 21 31 0.19
r105 21 22 3.36154
r106 19 37 2.86
r107 18 19 89.3538
r108 16 24 0.212317
r109 16 18 3.23
r110 14 35 4.7687
r111 13 14 89.3538
r112 11 22 0.212317
r113 11 13 0.774615
r114 10 24 0.906154
r115 10 23 2.30923
r116 9 27 2.44077
r117 5 37 1.98872
r118 5 7 49.14
r119 3 35 49.14
.ends

.subckt PM_FULLSYSTEM%X203/15 1 2 3 7 13
c40 13 0 0.0806153f
c41 7 0 0.028122f
c42 3 0 0.0332545f
c43 2 0 0.077536f
r44 11 13 3.05462
r45 7 11 0.212317
r46 3 13 0.377056
r47 2 3 0.13775
r48 1 7 0.336154
.ends

.subckt PM_FULLSYSTEM%X203/16 4 7 9 10 19 20 21 22 24 25 27 28 32 33
c110 33 0 0.0362957f
c111 32 0 0.0437232f
c112 28 0 0.0499445f
c113 27 0 0.00821505f
c114 25 0 0.0101791f
c115 24 0 0.0645139f
c116 22 0 0.010183f
c117 21 0 0.119624f
c118 20 0 0.00608875f
c119 19 0 0.130179f
c120 10 0 0.0336491f
c121 9 0 0.041335f
c122 7 0 0.179766f
c123 4 0 0.267989f
r124 33 38 3.38
r125 32 33 89.3538
r126 30 32 3.34692
r127 28 37 4.7687
r128 27 28 89.3538
r129 25 27 0.19
r130 23 25 0.212317
r131 23 24 1.69538
r132 21 24 0.212317
r133 21 22 4.38462
r134 19 30 0.212317
r135 19 20 5.37846
r136 15 22 0.212317
r137 11 20 0.212317
r138 10 11 1.18385
r139 9 15 0.833077
r140 5 38 1.98872
r141 5 7 57.72
r142 4 37 49.14
r143 2 38 1.98872
r144 2 4 88.53
.ends

.subckt PM_FULLSYSTEM%X203/17 1 3 4 5 8 11 14 16 18 22 25 26 27 28 29 32 38 45
+ 48 52 53 60
c114 60 0 0.0505372f
c115 53 0 0.00485795f
c116 52 0 0.00726499f
c117 51 0 0.00693894f
c118 48 0 0.026103f
c119 45 0 0.00598719f
c120 38 0 0.0104312f
c121 32 0 0.035541f
c122 29 0 0.0512844f
c123 28 0 0.0997228f
c124 27 0 0.0336217f
c125 26 0 0.00944134f
c126 25 0 0.448315f
c127 22 0 0.32856f
c128 18 0 0.0937562f
c129 16 0 0.0660782f
c130 14 0 0.200915f
c131 11 0 0.0795652f
c132 8 0 0.175127f
c133 5 0 0.0125072f
c134 4 0 0.535535f
c135 1 0 0.177611f
r136 59 60 3.4687
r137 49 59 3.9
r138 48 49 89.3538
r139 46 53 0.160909
r140 46 48 0.774615
r141 45 53 0.0418175
r142 45 52 0.38
r143 40 52 0.244808
r144 39 51 0.160909
r145 38 53 0.160909
r146 38 39 0.496923
r147 34 51 0.0418175
r148 32 55 4.7687
r149 31 32 89.3538
r150 29 51 0.160909
r151 29 31 1.62231
r152 28 34 3.27385
r153 27 40 0.0542857
r154 24 25 166.14
r155 20 22 87.75
r156 19 26 0.858359
r157 18 24 4.35808
r158 18 19 29.64
r159 16 20 4.35808
r160 16 60 15.21
r161 12 26 3.30287
r162 12 14 51.48
r163 11 26 3.30287
r164 10 59 1.98872
r165 10 11 37.83
r166 8 55 49.14
r167 4 25 4.35808
r168 4 5 203.58
r169 1 5 4.35808
r170 1 3 46.8
.ends

.subckt PM_FULLSYSTEM%X204/9 3 5 9 11 16 17 18 20 23 25 30 32 33 37 42 43 44 45
+ 51 54 56 57 58 65 66 75 76 80
c154 80 0 0.0361355f
c155 76 0 0.0977812f
c156 75 0 0.0631668f
c157 66 0 0.0692783f
c158 65 0 0.0357321f
c159 58 0 0.0186626f
c160 57 0 0.0163994f
c161 56 0 0.0101274f
c162 54 0 0.032264f
c163 51 0 0.0218493f
c164 45 0 0.0126405f
c165 44 0 0.017112f
c166 43 0 0.014596f
c167 42 0 0.0220904f
c168 37 0 0.0117909f
c169 33 0 0.0830439f
c170 32 0 0.0305726f
c171 30 0 0.0540436f
c172 25 0 0.0556987f
c173 23 0 0.14427f
c174 20 0 0.0729387f
c175 18 0 0.0125502f
c176 17 0 0.0894008f
c177 16 0 0.178947f
c178 11 0 0.499748f
c179 9 0 0.214716f
c180 5 0 0.0424759f
c181 3 0 0.225114f
r182 75 76 89.3538
r183 72 75 6.5
r184 69 76 20.48
r185 65 69 2.92857
r186 65 66 20.48
r187 62 80 4.7687
r188 61 62 89.3538
r189 58 61 0.204615
r190 56 66 0.68963
r191 56 57 0.292522
r192 52 54 0.76
r193 50 76 0.738889
r194 50 51 0.292522
r195 44 58 0.0223169
r196 44 45 0.555385
r197 42 46 0.212317
r198 42 43 0.526154
r199 39 54 0.0223169
r200 38 45 0.212317
r201 37 43 0.212317
r202 37 51 0.38
r203 34 52 0.0223169
r204 34 57 1.18385
r205 33 46 0.833077
r206 32 39 0.0146154
r207 32 38 0.833077
r208 28 30 10.14
r209 25 27 11.7
r210 21 30 0.458085
r211 21 23 44.85
r212 20 28 0.458085
r213 19 20 31.2
r214 17 19 4.35808
r215 17 18 22.62
r216 14 18 4.35808
r217 14 16 27.3
r218 13 16 62.4
r219 12 25 0.458085
r220 11 13 4.35808
r221 11 12 182.52
r222 7 27 3.9
r223 7 9 67.08
r224 5 27 0.458085
r225 5 80 13.26
r226 1 72 1.98872
r227 1 3 80.34
.ends

.subckt PM_FULLSYSTEM%X204/10 3 5 9 11 15 17 21 23 24 30 35 37 40 43 45 46 49 50
+ 51 54 57 58 62 63 66 67 69 72 73 75 77 81 82 97 99 103
c251 103 0 0.0536174f
c252 99 0 0.0457357f
c253 97 0 0.0669993f
c254 82 0 0.0514276f
c255 81 0 0.216957f
c256 77 0 0.0640363f
c257 75 0 0.0361522f
c258 73 0 0.0392959f
c259 72 0 0.0633577f
c260 69 0 0.00508273f
c261 67 0 0.00778646f
c262 66 0 0.0435608f
c263 63 0 0.0666296f
c264 62 0 0.00946095f
c265 58 0 0.00909467f
c266 57 0 0.0099211f
c267 54 0 0.0128802f
c268 51 0 0.0119136f
c269 50 0 0.0188744f
c270 49 0 0.032962f
c271 46 0 0.120948f
c272 45 0 0.0302888f
c273 43 0 0.0210465f
c274 40 0 0.0510659f
c275 37 0 0.0943785f
c276 35 0 0.158726f
c277 30 0 0.107096f
c278 24 0 0.0522573f
c279 23 0 0.0718526f
c280 21 0 0.231569f
c281 17 0 0.0798617f
c282 15 0 0.106126f
c283 9 0 0.522173f
c284 3 0 0.29278f
r285 96 99 3.38
r286 96 97 89.3538
r287 86 97 1.50538
r288 85 86 20.48
r289 81 85 2.9375
r290 81 82 25.6
r291 77 78 34.1333
r292 75 77 0.189815
r293 72 73 102.4
r294 70 75 0.158772
r295 70 72 0.9375
r296 68 82 2.41154
r297 68 69 0.0418175
r298 66 78 0.302593
r299 66 67 0.11094
r300 64 73 0.862308
r301 63 91 5.46
r302 62 64 0.0223169
r303 62 63 89.3538
r304 59 62 0.204615
r305 55 103 4.7687
r306 54 55 89.3538
r307 52 69 0.160909
r308 52 54 0.453077
r309 50 69 0.160909
r310 50 51 1.46154
r311 48 51 0.212317
r312 48 49 2.00231
r313 47 67 0.11094
r314 46 49 0.212317
r315 46 47 3.88769
r316 45 67 0.0912879
r317 44 45 1.81231
r318 42 59 0.0223169
r319 42 43 1.88538
r320 40 90 4.7687
r321 39 40 89.3538
r322 37 44 0.212317
r323 37 39 3.31769
r324 36 58 0.0418175
r325 35 43 0.212317
r326 35 36 4.94
r327 30 58 0.160909
r328 30 57 2.93769
r329 25 57 0.192522
r330 24 58 0.160909
r331 23 25 0.176429
r332 19 21 68.25
r333 17 19 4.35808
r334 17 103 17.16
r335 13 99 1.98872
r336 13 15 29.64
r337 9 11 114.27
r338 7 91 1.98872
r339 7 9 29.64
r340 3 5 60.84
r341 3 90 29.64
.ends

.subckt PM_FULLSYSTEM%X204/11 1 2
c14 1 0 0.0890731f
r15 1 2 2.67462
.ends

.subckt PM_FULLSYSTEM%X204/12 1 2 3 6 12 13
c51 13 0 0.032f
c52 12 0 0.0332675f
c53 6 0 0.0656409f
c54 3 0 0.0542292f
c55 1 0 0.0197742f
r56 12 13 0.447336
r57 7 12 0.156557
r58 6 8 0.212317
r59 6 7 1.92923
r60 4 13 1.63692
r61 3 8 0.833077
r62 2 12 0.239259
r63 1 4 0.0223169
.ends

.subckt PM_FULLSYSTEM%X204/13 1 4 7 8 9 13 15 17 18 19 21 22 31 32 35 38 41
c101 41 0 0.0358147f
c102 38 0 0.0122682f
c103 35 0 0.0334784f
c104 32 0 0.024819f
c105 31 0 0.0818919f
c106 22 0 0.050654f
c107 21 0 0.0120237f
c108 20 0 0.0154444f
c109 19 0 0.0232198f
c110 18 0 0.0538496f
c111 15 0 0.206166f
c112 13 0 0.236958f
c113 9 0 0.0513732f
c114 8 0 0.0225927f
c115 7 0 0.23847f
c116 4 0 0.388196f
c117 1 0 0.0400789f
r118 36 41 4.7687
r119 35 36 89.3538
r120 33 35 1.38846
r121 31 33 0.212317
r122 31 32 3.85846
r123 24 38 0.244808
r124 23 32 0.227973
r125 22 38 1.79769
r126 21 24 0.0542857
r127 21 23 0.352857
r128 18 19 5.57143
r129 15 17 46.8
r130 11 13 53.04
r131 10 20 3.30287
r132 9 11 4.35808
r133 9 10 10.14
r134 7 15 4.35808
r135 7 8 91.26
r136 5 20 0.858359
r137 5 18 25.74
r138 4 8 4.35808
r139 4 19 161.85
r140 1 20 3.30287
r141 1 41 13.26
.ends

.subckt PM_FULLSYSTEM%X204/14 3 7 9 10 13 14 16 19 21 22 32
c84 32 0 0.014798f
c85 22 0 0.0061064f
c86 21 0 0.097213f
c87 19 0 0.0527956f
c88 16 0 0.0897652f
c89 14 0 0.0295924f
c90 13 0 0.0126979f
c91 10 0 0.0921852f
c92 9 0 0.108724f
c93 7 0 0.189497f
c94 3 0 0.221655f
r95 31 32 0.38
r96 27 32 0.0223169
r97 23 31 0.0223169
r98 21 31 0.19
r99 21 22 3.36154
r100 19 37 2.86
r101 18 19 89.3538
r102 16 24 0.212317
r103 16 18 3.23
r104 14 35 4.7687
r105 13 14 89.3538
r106 11 22 0.212317
r107 11 13 0.774615
r108 10 24 0.906154
r109 10 23 2.30923
r110 9 27 2.44077
r111 5 37 1.98872
r112 5 7 49.14
r113 3 35 49.14
.ends

.subckt PM_FULLSYSTEM%X204/15 1 2 3 7 13
c38 13 0 0.0791254f
c39 7 0 0.0350744f
c40 3 0 0.0398583f
c41 2 0 0.077536f
r42 11 13 3.05462
r43 7 11 0.212317
r44 3 13 0.377056
r45 2 3 0.13775
r46 1 7 0.336154
.ends

.subckt PM_FULLSYSTEM%X204/16 4 7 9 10 19 20 21 22 24 25 27 28 32 33
c98 33 0 0.0362957f
c99 32 0 0.0437232f
c100 28 0 0.0499445f
c101 27 0 0.00821505f
c102 25 0 0.0101791f
c103 24 0 0.0645139f
c104 22 0 0.010183f
c105 21 0 0.135328f
c106 20 0 0.00522669f
c107 19 0 0.138877f
c108 10 0 0.0367191f
c109 9 0 0.0429875f
c110 7 0 0.179766f
c111 4 0 0.270417f
r112 33 38 3.38
r113 32 33 89.3538
r114 30 32 3.34692
r115 28 37 4.7687
r116 27 28 89.3538
r117 25 27 0.19
r118 23 25 0.212317
r119 23 24 1.69538
r120 21 24 0.212317
r121 21 22 4.38462
r122 19 30 0.212317
r123 19 20 5.37846
r124 15 22 0.212317
r125 11 20 0.212317
r126 10 11 1.18385
r127 9 15 0.833077
r128 5 38 1.98872
r129 5 7 57.72
r130 4 37 49.14
r131 2 38 1.98872
r132 2 4 88.53
.ends

.subckt PM_FULLSYSTEM%X204/17 1 3 4 5 8 11 14 16 18 22 25 26 27 28 29 32 38 45
+ 48 52 53 60
c102 60 0 0.0505372f
c103 53 0 0.00743256f
c104 52 0 0.00726499f
c105 51 0 0.00693894f
c106 48 0 0.0268113f
c107 45 0 0.00598719f
c108 38 0 0.0104312f
c109 32 0 0.035541f
c110 29 0 0.054166f
c111 28 0 0.100171f
c112 27 0 0.0335311f
c113 26 0 0.00944134f
c114 25 0 0.454313f
c115 22 0 0.333473f
c116 18 0 0.0937562f
c117 16 0 0.066139f
c118 14 0 0.200915f
c119 11 0 0.0838301f
c120 8 0 0.175127f
c121 5 0 0.0154649f
c122 4 0 0.547904f
c123 1 0 0.198781f
r124 59 60 3.4687
r125 49 59 3.9
r126 48 49 89.3538
r127 46 53 0.160909
r128 46 48 0.774615
r129 45 53 0.0418175
r130 45 52 0.38
r131 40 52 0.244808
r132 39 51 0.160909
r133 38 53 0.160909
r134 38 39 0.496923
r135 34 51 0.0418175
r136 32 55 4.7687
r137 31 32 89.3538
r138 29 51 0.160909
r139 29 31 1.62231
r140 28 34 3.27385
r141 27 40 0.0542857
r142 24 25 166.14
r143 20 22 87.75
r144 19 26 0.858359
r145 18 24 4.35808
r146 18 19 29.64
r147 16 20 4.35808
r148 16 60 15.21
r149 12 26 3.30287
r150 12 14 51.48
r151 11 26 3.30287
r152 10 59 1.98872
r153 10 11 37.83
r154 8 55 49.14
r155 4 25 4.35808
r156 4 5 203.58
r157 1 5 4.35808
r158 1 3 46.8
.ends

.subckt PM_FULLSYSTEM%X205/9 3 5 9 11 16 17 18 20 23 25 30 32 33 37 42 43 44 45
+ 51 54 56 57 58 65 66 75 76 80
c164 80 0 0.0361355f
c165 76 0 0.0977812f
c166 75 0 0.0631668f
c167 66 0 0.0637251f
c168 65 0 0.0544009f
c169 58 0 0.0179499f
c170 57 0 0.0163994f
c171 56 0 0.0101274f
c172 54 0 0.032264f
c173 51 0 0.0218493f
c174 45 0 0.0126405f
c175 44 0 0.017112f
c176 43 0 0.014596f
c177 42 0 0.0220904f
c178 37 0 0.0117909f
c179 33 0 0.0830439f
c180 32 0 0.0305726f
c181 30 0 0.0540436f
c182 25 0 0.0556987f
c183 23 0 0.14427f
c184 20 0 0.0684102f
c185 18 0 0.0125502f
c186 17 0 0.0894008f
c187 16 0 0.178947f
c188 11 0 0.499748f
c189 9 0 0.214716f
c190 5 0 0.0424759f
c191 3 0 0.225114f
r192 75 76 89.3538
r193 72 75 6.5
r194 69 76 20.48
r195 65 69 2.92857
r196 65 66 20.48
r197 62 80 4.7687
r198 61 62 89.3538
r199 58 61 0.204615
r200 56 66 0.68963
r201 56 57 0.292522
r202 52 54 0.76
r203 50 76 0.738889
r204 50 51 0.292522
r205 44 58 0.0223169
r206 44 45 0.555385
r207 42 46 0.212317
r208 42 43 0.526154
r209 39 54 0.0223169
r210 38 45 0.212317
r211 37 43 0.212317
r212 37 51 0.38
r213 34 52 0.0223169
r214 34 57 1.18385
r215 33 46 0.833077
r216 32 39 0.0146154
r217 32 38 0.833077
r218 28 30 10.14
r219 25 27 11.7
r220 21 30 0.458085
r221 21 23 44.85
r222 20 28 0.458085
r223 19 20 31.2
r224 17 19 4.35808
r225 17 18 22.62
r226 14 18 4.35808
r227 14 16 27.3
r228 13 16 62.4
r229 12 25 0.458085
r230 11 13 4.35808
r231 11 12 182.52
r232 7 27 3.9
r233 7 9 67.08
r234 5 27 0.458085
r235 5 80 13.26
r236 1 72 1.98872
r237 1 3 80.34
.ends

.subckt PM_FULLSYSTEM%X205/10 3 5 9 11 15 17 21 23 24 30 35 37 40 43 45 46 49 50
+ 51 54 57 58 62 63 66 67 69 72 73 75 77 81 82 97 99 103
c255 103 0 0.0536174f
c256 99 0 0.0457357f
c257 97 0 0.0670065f
c258 82 0 0.0514276f
c259 81 0 0.220065f
c260 77 0 0.0640363f
c261 75 0 0.0361522f
c262 73 0 0.0352983f
c263 72 0 0.0625311f
c264 69 0 0.00508273f
c265 67 0 0.00778646f
c266 66 0 0.0435608f
c267 63 0 0.0618793f
c268 62 0 0.00773676f
c269 58 0 0.0144952f
c270 57 0 0.0099211f
c271 54 0 0.0115215f
c272 51 0 0.0119136f
c273 50 0 0.0188744f
c274 49 0 0.032962f
c275 46 0 0.105164f
c276 45 0 0.0302888f
c277 43 0 0.0210465f
c278 40 0 0.0510659f
c279 37 0 0.0938063f
c280 35 0 0.165081f
c281 30 0 0.129399f
c282 24 0 0.0676543f
c283 23 0 0.0718526f
c284 21 0 0.231569f
c285 17 0 0.0798617f
c286 15 0 0.106126f
c287 9 0 0.522173f
c288 3 0 0.29278f
r289 96 99 3.38
r290 96 97 89.3538
r291 86 97 1.50538
r292 85 86 20.48
r293 81 85 2.9375
r294 81 82 25.6
r295 77 78 34.1333
r296 75 77 0.189815
r297 72 73 102.4
r298 70 75 0.158772
r299 70 72 0.9375
r300 68 82 2.41154
r301 68 69 0.0418175
r302 66 78 0.302593
r303 66 67 0.11094
r304 64 73 0.862308
r305 63 91 5.46
r306 62 64 0.0223169
r307 62 63 89.3538
r308 59 62 0.204615
r309 55 103 4.7687
r310 54 55 89.3538
r311 52 69 0.160909
r312 52 54 0.453077
r313 50 69 0.160909
r314 50 51 1.46154
r315 48 51 0.212317
r316 48 49 2.00231
r317 47 67 0.11094
r318 46 49 0.212317
r319 46 47 3.88769
r320 45 67 0.0912879
r321 44 45 1.81231
r322 42 59 0.0223169
r323 42 43 1.88538
r324 40 90 4.7687
r325 39 40 89.3538
r326 37 44 0.212317
r327 37 39 3.31769
r328 36 58 0.0418175
r329 35 43 0.212317
r330 35 36 4.94
r331 30 58 0.160909
r332 30 57 2.93769
r333 25 57 0.192522
r334 24 58 0.160909
r335 23 25 0.176429
r336 19 21 68.25
r337 17 19 4.35808
r338 17 103 17.16
r339 13 99 1.98872
r340 13 15 29.64
r341 9 11 114.27
r342 7 91 1.98872
r343 7 9 29.64
r344 3 5 60.84
r345 3 90 29.64
.ends

.subckt PM_FULLSYSTEM%X205/11 1 2
c14 1 0 0.0758389f
r15 1 2 2.67462
.ends

.subckt PM_FULLSYSTEM%X205/12 1 2 3 6 12 13
c55 13 0 0.0259487f
c56 12 0 0.033068f
c57 6 0 0.0627635f
c58 3 0 0.0542292f
c59 1 0 0.01756f
r60 12 13 0.447336
r61 7 12 0.156557
r62 6 8 0.212317
r63 6 7 1.92923
r64 4 13 1.63692
r65 3 8 0.833077
r66 2 12 0.239259
r67 1 4 0.0223169
.ends

.subckt PM_FULLSYSTEM%X205/13 1 4 7 8 9 13 15 17 18 19 20 21 22 31 32 35 38 41
c104 41 0 0.0346379f
c105 38 0 0.0122682f
c106 35 0 0.0279232f
c107 32 0 0.024819f
c108 31 0 0.0782648f
c109 22 0 0.0436382f
c110 21 0 0.0120237f
c111 20 0 0.0154444f
c112 19 0 0.0232198f
c113 18 0 0.0517604f
c114 15 0 0.211747f
c115 13 0 0.236958f
c116 9 0 0.0449723f
c117 8 0 0.0277527f
c118 7 0 0.286366f
c119 4 0 0.388196f
c120 1 0 0.0370547f
r121 36 41 4.7687
r122 35 36 89.3538
r123 33 35 1.38846
r124 31 33 0.212317
r125 31 32 3.85846
r126 24 38 0.244808
r127 23 32 0.227973
r128 22 38 1.79769
r129 21 24 0.0542857
r130 21 23 0.352857
r131 18 19 5.57143
r132 15 17 46.8
r133 11 13 53.04
r134 10 20 3.30287
r135 9 11 4.35808
r136 9 10 10.14
r137 7 15 4.35808
r138 7 8 91.26
r139 5 20 0.858359
r140 5 18 25.74
r141 4 8 4.35808
r142 4 19 161.85
r143 1 20 3.30287
r144 1 41 13.26
.ends

.subckt PM_FULLSYSTEM%X205/14 3 7 9 10 13 14 16 19 21 22 32
c89 32 0 0.014798f
c90 22 0 0.0061064f
c91 21 0 0.0760473f
c92 19 0 0.0527956f
c93 16 0 0.0818269f
c94 14 0 0.0280931f
c95 13 0 0.0113419f
c96 10 0 0.0921852f
c97 9 0 0.110095f
c98 7 0 0.189497f
c99 3 0 0.221655f
r100 31 32 0.38
r101 27 32 0.0223169
r102 23 31 0.0223169
r103 21 31 0.19
r104 21 22 3.36154
r105 19 37 2.86
r106 18 19 89.3538
r107 16 24 0.212317
r108 16 18 3.23
r109 14 35 4.7687
r110 13 14 89.3538
r111 11 22 0.212317
r112 11 13 0.774615
r113 10 24 0.906154
r114 10 23 2.30923
r115 9 27 2.44077
r116 5 37 1.98872
r117 5 7 49.14
r118 3 35 49.14
.ends

.subckt PM_FULLSYSTEM%X205/15 1 2 3 7 13
c44 13 0 0.0561552f
c45 7 0 0.0234476f
c46 3 0 0.0269976f
c47 2 0 0.0613283f
r48 11 13 3.05462
r49 7 11 0.212317
r50 3 13 0.377056
r51 2 3 0.13775
r52 1 7 0.336154
.ends

.subckt PM_FULLSYSTEM%X205/16 4 7 9 10 19 20 21 22 24 25 27 28 32 33
c121 33 0 0.0327183f
c122 32 0 0.0466795f
c123 28 0 0.0499445f
c124 27 0 0.00772969f
c125 25 0 0.0101791f
c126 24 0 0.0472184f
c127 22 0 0.010183f
c128 21 0 0.116418f
c129 20 0 0.00608875f
c130 19 0 0.125335f
c131 10 0 0.0336491f
c132 9 0 0.041335f
c133 7 0 0.17012f
c134 4 0 0.266974f
r135 33 38 3.38
r136 32 33 89.3538
r137 30 32 3.34692
r138 28 37 4.7687
r139 27 28 89.3538
r140 25 27 0.19
r141 23 25 0.212317
r142 23 24 1.69538
r143 21 24 0.212317
r144 21 22 4.38462
r145 19 30 0.212317
r146 19 20 5.37846
r147 15 22 0.212317
r148 11 20 0.212317
r149 10 11 1.18385
r150 9 15 0.833077
r151 5 38 1.98872
r152 5 7 57.72
r153 4 37 49.14
r154 2 38 1.98872
r155 2 4 88.53
.ends

.subckt PM_FULLSYSTEM%X205/17 1 3 4 5 8 11 14 16 18 22 25 26 27 28 29 32 38 45
+ 48 52 53 60
c121 60 0 0.0505372f
c122 53 0 0.00335845f
c123 52 0 0.00760226f
c124 51 0 0.00693894f
c125 48 0 0.0216277f
c126 45 0 0.00493603f
c127 38 0 0.0104312f
c128 32 0 0.035541f
c129 29 0 0.0512844f
c130 28 0 0.084423f
c131 27 0 0.027826f
c132 26 0 0.00944134f
c133 25 0 0.454313f
c134 22 0 0.333473f
c135 18 0 0.0937562f
c136 16 0 0.0661633f
c137 14 0 0.200915f
c138 11 0 0.0795652f
c139 8 0 0.175127f
c140 5 0 0.0152769f
c141 4 0 0.621989f
c142 1 0 0.177611f
r143 59 60 3.4687
r144 49 59 3.9
r145 48 49 89.3538
r146 46 53 0.160909
r147 46 48 0.774615
r148 45 53 0.0418175
r149 45 52 0.38
r150 40 52 0.244808
r151 39 51 0.160909
r152 38 53 0.160909
r153 38 39 0.496923
r154 34 51 0.0418175
r155 32 55 4.7687
r156 31 32 89.3538
r157 29 51 0.160909
r158 29 31 1.62231
r159 28 34 3.27385
r160 27 40 0.0542857
r161 24 25 166.14
r162 20 22 87.75
r163 19 26 0.858359
r164 18 24 4.35808
r165 18 19 29.64
r166 16 20 4.35808
r167 16 60 15.21
r168 12 26 3.30287
r169 12 14 51.48
r170 11 26 3.30287
r171 10 59 1.98872
r172 10 11 37.83
r173 8 55 49.14
r174 4 25 4.35808
r175 4 5 203.58
r176 1 5 4.35808
r177 1 3 46.8
.ends

.subckt PM_FULLSYSTEM%X206/9 3 5 9 11 16 17 18 20 23 25 30 32 33 37 42 43 44 45
+ 51 54 56 57 58 65 66 75 76 80
c156 80 0 0.0361355f
c157 76 0 0.0977365f
c158 75 0 0.0631668f
c159 66 0 0.0693024f
c160 65 0 0.049035f
c161 58 0 0.0180256f
c162 57 0 0.0163994f
c163 56 0 0.0101274f
c164 54 0 0.032264f
c165 51 0 0.0218493f
c166 45 0 0.00950861f
c167 44 0 0.017112f
c168 43 0 0.014596f
c169 42 0 0.0220904f
c170 37 0 0.0117909f
c171 33 0 0.0830439f
c172 32 0 0.0240077f
c173 30 0 0.0540436f
c174 25 0 0.0556987f
c175 23 0 0.14427f
c176 20 0 0.0729387f
c177 18 0 0.0125502f
c178 17 0 0.0894008f
c179 16 0 0.178947f
c180 11 0 0.496447f
c181 9 0 0.214716f
c182 5 0 0.0424759f
c183 3 0 0.225114f
r184 75 76 89.3538
r185 72 75 6.5
r186 69 76 20.48
r187 65 69 2.92857
r188 65 66 20.48
r189 62 80 4.7687
r190 61 62 89.3538
r191 58 61 0.204615
r192 56 66 0.68963
r193 56 57 0.292522
r194 52 54 0.76
r195 50 76 0.738889
r196 50 51 0.292522
r197 44 58 0.0223169
r198 44 45 0.555385
r199 42 46 0.212317
r200 42 43 0.526154
r201 39 54 0.0223169
r202 38 45 0.212317
r203 37 43 0.212317
r204 37 51 0.38
r205 34 52 0.0223169
r206 34 57 1.18385
r207 33 46 0.833077
r208 32 39 0.0146154
r209 32 38 0.833077
r210 28 30 10.14
r211 25 27 11.7
r212 21 30 0.458085
r213 21 23 44.85
r214 20 28 0.458085
r215 19 20 31.2
r216 17 19 4.35808
r217 17 18 22.62
r218 14 18 4.35808
r219 14 16 27.3
r220 13 16 62.4
r221 12 25 0.458085
r222 11 13 4.35808
r223 11 12 182.52
r224 7 27 3.9
r225 7 9 67.08
r226 5 27 0.458085
r227 5 80 13.26
r228 1 72 1.98872
r229 1 3 80.34
.ends

.subckt PM_FULLSYSTEM%X206/10 3 5 9 11 15 17 21 23 24 30 35 37 40 43 45 46 49 50
+ 51 54 57 58 62 63 66 67 69 72 73 75 77 81 82 97 99 103
c259 103 0 0.0536174f
c260 99 0 0.0457357f
c261 97 0 0.0669993f
c262 82 0 0.0514276f
c263 81 0 0.148954f
c264 77 0 0.0640363f
c265 75 0 0.0361522f
c266 73 0 0.0392959f
c267 72 0 0.0633577f
c268 69 0 0.00508273f
c269 67 0 0.00778646f
c270 66 0 0.0435608f
c271 63 0 0.0666296f
c272 62 0 0.00938875f
c273 58 0 0.0144952f
c274 57 0 0.0099211f
c275 54 0 0.0128802f
c276 51 0 0.00939498f
c277 50 0 0.0188744f
c278 49 0 0.0272408f
c279 46 0 0.117146f
c280 45 0 0.0235756f
c281 43 0 0.0212123f
c282 40 0 0.0510659f
c283 37 0 0.0964098f
c284 35 0 0.166738f
c285 30 0 0.126431f
c286 24 0 0.0676543f
c287 23 0 0.0712391f
c288 21 0 0.231569f
c289 17 0 0.0798617f
c290 15 0 0.106126f
c291 9 0 0.518567f
c292 3 0 0.29278f
r293 96 99 3.38
r294 96 97 89.3538
r295 86 97 1.50538
r296 85 86 20.48
r297 81 85 2.9375
r298 81 82 25.6
r299 77 78 34.1333
r300 75 77 0.189815
r301 72 73 102.4
r302 70 75 0.158772
r303 70 72 0.9375
r304 68 82 2.41154
r305 68 69 0.0418175
r306 66 78 0.302593
r307 66 67 0.11094
r308 64 73 0.862308
r309 63 91 5.46
r310 62 64 0.0223169
r311 62 63 89.3538
r312 59 62 0.204615
r313 55 103 4.7687
r314 54 55 89.3538
r315 52 69 0.160909
r316 52 54 0.453077
r317 50 69 0.160909
r318 50 51 1.46154
r319 48 51 0.212317
r320 48 49 2.00231
r321 47 67 0.11094
r322 46 49 0.212317
r323 46 47 3.88769
r324 45 67 0.0912879
r325 44 45 1.81231
r326 42 59 0.0223169
r327 42 43 1.88538
r328 40 90 4.7687
r329 39 40 89.3538
r330 37 44 0.212317
r331 37 39 3.31769
r332 36 58 0.0418175
r333 35 43 0.212317
r334 35 36 4.94
r335 30 58 0.160909
r336 30 57 2.93769
r337 25 57 0.192522
r338 24 58 0.160909
r339 23 25 0.176429
r340 19 21 68.25
r341 17 19 4.35808
r342 17 103 17.16
r343 13 99 1.98872
r344 13 15 29.64
r345 9 11 114.27
r346 7 91 1.98872
r347 7 9 29.64
r348 3 5 60.84
r349 3 90 29.64
.ends

.subckt PM_FULLSYSTEM%X206/11 1 2
c14 1 0 0.0807623f
r15 1 2 2.67462
.ends

.subckt PM_FULLSYSTEM%X206/12 1 2 3 6 12 13
c53 13 0 0.0235566f
c54 12 0 0.0332675f
c55 6 0 0.0646863f
c56 3 0 0.0494011f
c57 1 0 0.0197742f
r58 12 13 0.447336
r59 7 12 0.156557
r60 6 8 0.212317
r61 6 7 1.92923
r62 4 13 1.63692
r63 3 8 0.833077
r64 2 12 0.239259
r65 1 4 0.0223169
.ends

.subckt PM_FULLSYSTEM%X206/13 1 4 7 8 9 13 15 17 18 19 21 22 31 32 35 38 41
c102 41 0 0.0358147f
c103 38 0 0.0122682f
c104 35 0 0.0308156f
c105 32 0 0.0249132f
c106 31 0 0.0810081f
c107 22 0 0.050654f
c108 21 0 0.0120237f
c109 20 0 0.0154444f
c110 19 0 0.0232198f
c111 18 0 0.0538496f
c112 15 0 0.211747f
c113 13 0 0.236958f
c114 9 0 0.0513732f
c115 8 0 0.0243451f
c116 7 0 0.254213f
c117 4 0 0.388196f
c118 1 0 0.0400789f
r119 36 41 4.7687
r120 35 36 89.3538
r121 33 35 1.38846
r122 31 33 0.212317
r123 31 32 3.85846
r124 24 38 0.244808
r125 23 32 0.227973
r126 22 38 1.79769
r127 21 24 0.0542857
r128 21 23 0.352857
r129 18 19 5.57143
r130 15 17 46.8
r131 11 13 53.04
r132 10 20 3.30287
r133 9 11 4.35808
r134 9 10 10.14
r135 7 15 4.35808
r136 7 8 91.26
r137 5 20 0.858359
r138 5 18 25.74
r139 4 8 4.35808
r140 4 19 161.85
r141 1 20 3.30287
r142 1 41 13.26
.ends

.subckt PM_FULLSYSTEM%X206/14 3 7 9 10 13 14 16 19 21 22 32
c88 32 0 0.014798f
c89 22 0 0.0061064f
c90 21 0 0.0955769f
c91 19 0 0.0527956f
c92 16 0 0.0853919f
c93 14 0 0.0295924f
c94 13 0 0.0118883f
c95 10 0 0.0534576f
c96 9 0 0.0575165f
c97 7 0 0.189329f
c98 3 0 0.221655f
r99 31 32 0.38
r100 27 32 0.0223169
r101 23 31 0.0223169
r102 21 31 0.19
r103 21 22 3.36154
r104 19 37 2.86
r105 18 19 89.3538
r106 16 24 0.212317
r107 16 18 3.23
r108 14 35 4.7687
r109 13 14 89.3538
r110 11 22 0.212317
r111 11 13 0.774615
r112 10 24 0.906154
r113 10 23 2.30923
r114 9 27 2.44077
r115 5 37 1.98872
r116 5 7 49.14
r117 3 35 49.14
.ends

.subckt PM_FULLSYSTEM%X206/15 1 2 3 7 13
c37 13 0 0.0791254f
c38 7 0 0.0350744f
c39 3 0 0.0398583f
c40 2 0 0.0754f
r41 11 13 3.05462
r42 7 11 0.212317
r43 3 13 0.377056
r44 2 3 0.13775
r45 1 7 0.336154
.ends

.subckt PM_FULLSYSTEM%X206/16 4 7 9 10 19 20 21 22 24 25 27 28 32 33
c102 33 0 0.0362957f
c103 32 0 0.0437232f
c104 28 0 0.0499445f
c105 27 0 0.0102801f
c106 25 0 0.0101791f
c107 24 0 0.0683683f
c108 22 0 0.010183f
c109 21 0 0.133324f
c110 20 0 0.00608875f
c111 19 0 0.132888f
c112 10 0 0.0367191f
c113 9 0 0.0429875f
c114 7 0 0.179766f
c115 4 0 0.270417f
r116 33 38 3.38
r117 32 33 89.3538
r118 30 32 3.34692
r119 28 37 4.7687
r120 27 28 89.3538
r121 25 27 0.19
r122 23 25 0.212317
r123 23 24 1.69538
r124 21 24 0.212317
r125 21 22 4.38462
r126 19 30 0.212317
r127 19 20 5.37846
r128 15 22 0.212317
r129 11 20 0.212317
r130 10 11 1.18385
r131 9 15 0.833077
r132 5 38 1.98872
r133 5 7 57.72
r134 4 37 49.14
r135 2 38 1.98872
r136 2 4 88.53
.ends

.subckt PM_FULLSYSTEM%X206/17 1 3 4 5 8 11 14 16 18 22 25 26 27 28 29 32 38 45
+ 48 52 53 60
c105 60 0 0.0505372f
c106 53 0 0.00743256f
c107 52 0 0.00726499f
c108 51 0 0.00693894f
c109 48 0 0.0268113f
c110 45 0 0.00598719f
c111 38 0 0.0104312f
c112 32 0 0.035541f
c113 29 0 0.054166f
c114 28 0 0.100174f
c115 27 0 0.0336217f
c116 26 0 0.00944134f
c117 25 0 0.454313f
c118 22 0 0.3292f
c119 18 0 0.0937893f
c120 16 0 0.0633487f
c121 14 0 0.200915f
c122 11 0 0.0838301f
c123 8 0 0.175127f
c124 5 0 0.0152769f
c125 4 0 0.581484f
c126 1 0 0.177611f
r127 59 60 3.4687
r128 49 59 3.9
r129 48 49 89.3538
r130 46 53 0.160909
r131 46 48 0.774615
r132 45 53 0.0418175
r133 45 52 0.38
r134 40 52 0.244808
r135 39 51 0.160909
r136 38 53 0.160909
r137 38 39 0.496923
r138 34 51 0.0418175
r139 32 55 4.7687
r140 31 32 89.3538
r141 29 51 0.160909
r142 29 31 1.62231
r143 28 34 3.27385
r144 27 40 0.0542857
r145 24 25 166.14
r146 20 22 87.75
r147 19 26 0.858359
r148 18 24 4.35808
r149 18 19 29.64
r150 16 20 4.35808
r151 16 60 15.21
r152 12 26 3.30287
r153 12 14 51.48