
** Library name: freepdk45_cells
** Cell name: NOR2X1
** View name: schematic
.subckt NOR2X1 a b y gnd vdd
